115
Coordinates from ORCA-job 13
  O   4.33015391123347     -1.31806370114804     -2.03630639391602
  C   3.29565282725834     -0.69777355585195     -1.78812520689964
  C   2.87385041736898      0.57602716072169     -2.57640152415799
  C   3.90328762567109      0.95565523679715     -3.64185261424530
  C   4.91339283764336      1.80500513174215     -2.85235723009024
  C   4.03327794312770      2.62675441406768     -1.89663706481799
  N   2.84692441972437      1.76842194966251     -1.69266352978366
  C   1.81185582529435      2.01889747295706     -0.86048117642050
  O   0.86464500257640      1.21054835266059     -0.70806978514707
  N   2.39813508661888     -1.04407091044158     -0.81624545087658
  C   2.71720955949076     -1.99655312229185      0.23748882455800
  C   1.49628002522895     -2.90894408135915      0.49035104630441
  N   0.72986096610355     -3.16246435112853     -0.60459954601031
  C   -0.54506360985060     -3.89343821835119     -0.61173051479019
  C   -1.68954442695010     -3.05801119699193      0.02113231692396
  N   -1.44390642176877     -2.61183271653513      1.29369161779296
  C   -2.26027723593302     -1.58604909108307      1.90766999770278
  C   -1.45827817538850     -0.29404535297780      2.14213487934765
  C   -2.36564749558555      0.91934285333605      2.46989835342759
  C   -1.66026425603427      2.25952563978496      2.76019424567343
  N   -0.36591780545541      2.19100581697198      3.20104595248962
  C   0.42240740502629      3.38212593988478      3.48197587413311
  C   1.24692782987107      3.84818112301808      2.25976396236831
  N   1.11323188778372      3.06587206828799      1.15372217294674
  C   1.79066916755826      3.34246194648067     -0.09436302535205
  C   1.08148658874345      4.43436054404484     -0.92298501204360
  O   1.96940923744443      4.84874867218814      2.29022571520675
  C   1.29890676411750      3.13935253680366      4.72720295451848
  C   2.09365980807666      4.34008393947062      5.27676219240633
  C   2.85903717249235      3.91014771388561      6.53712937703994
  C   1.19463774573909      5.55318148581009      5.55152425829147
  O   -2.25685811816818      3.32163581552589      2.57243144560417
  C   -3.36985243850770      1.19466672367225      1.31295889798241
  C   -2.78403530694005      1.64257297364591     -0.02249943895211
  C   -2.63120369084058      0.41838608070129     -0.94737800469194
  C   -1.92651267558661      0.67719473870407     -2.28666873127162
  C   -1.23130170012904     -0.60071800042913     -2.77289797584491
  C   -0.41481894076970     -0.46658409407704     -4.06079857359047
  C   0.57754799049908     -1.62199268340902     -4.24393578016075
  C   1.55272033761720     -1.46351672599121     -5.41486064242492
  C   2.70145760279672     -2.48035459968457     -5.39336894972099
  C   3.69446134193360     -2.30226683423955     -6.54504811954985
  O   -4.55800971681336      0.96788079622177      1.45834543024039
  O   -0.44604308204936     -0.53136963167538      3.14378127065875
  O   -2.72490246604498     -2.82680918612383     -0.60534779075903
  C   -0.43933602341522     -5.31538216921558     -0.02497183073998
  C   -1.75333444884276     -6.09181513963783     -0.13568216780048
  O   1.22932243564297     -3.34066173617778      1.62426253393620
  C   3.18754822355430     -1.32364622774264      1.56389657764033
  C   4.01407925948665     -0.05574175184769      1.30414297791924
  C   3.98414483220121     -2.32861704755391      2.40998881556619
  H   1.85319937012944      0.42029096130669     -2.97673308653957
  H   3.41563297017830      1.55008092829008     -4.44127743865023
  H   4.36146563374132      0.05504615572673     -4.08894220780596
  H   5.57769462770647      1.13128359583900     -2.27540194598761
  H   5.54708151325656      2.44907722099964     -3.49134904000664
  H   4.53222380493322      2.84501293348309     -0.93126016234111
  H   3.72772494382440      3.59457202620110     -2.34933345969962
  H   1.62591169884029     -0.36327556328397     -0.66059474488320
  H   3.55001286246016     -2.61815225323884     -0.16201964863289
  H   0.98450563713799     -2.65430766972300     -1.45711060489503
  H   -0.84374995642150     -3.97197601027286     -1.67513169317231
  H   -0.53100358960215     -2.85537692510954      1.71951282383331
  H   -2.67437805162547     -1.92766415784613      2.88585086525544
  H   -3.12864177959566     -1.41378621437548      1.24273793237731
  H   -0.87342722631599     -0.06723015292281      1.22622762492053
  H   -2.99764842468204      0.67714610424645      3.35270285184092
  H   0.01520450216998      1.24890309146718      3.38292622946081
  H   -0.30180988699685      4.20216684672681      3.67205655110837
  H   0.47335563089219      2.26592080885503      1.16089439813311
  H   2.81602945787175      3.69138366688650      0.14700849297392
  H   1.04494724524787      5.36501973110724     -0.32566134503859
  H   1.62232728995171      4.64250938704434     -1.86824247869050
  H   0.04786912860031      4.11908323726033     -1.16669420087445
  H   2.00464089044537      2.30701249050466      4.50315922010456
  H   0.61803381927924      2.76462176190957      5.52434727710467
  H   2.82665478752768      4.64105326356985      4.49977961927568
  H   3.52306261504430      3.04306797141542      6.33735699959433
  H   3.49097952158065      4.73587174902409      6.92314263194116
  H   2.16049780727077      3.61566510227197      7.35051898247501
  H   0.76798827009407      5.95672370052838      4.61239962477091
  H   0.35762791863629      5.29353043836024      6.23595803633456
  H   1.77308948837838      6.37158400637164      6.02695895198678
  H   -1.79670867157895      2.12783885196529      0.11876969456281
  H   -3.47460580062180      2.38911191747143     -0.46396167446515
  H   -3.62134189938211     -0.05637550579480     -1.10267773303395
  H   -2.03170188257006     -0.34731755223977     -0.42086224237790
  H   -1.15275945099527      1.46285522106075     -2.14985772372248
  H   -2.64260008936421      1.05899468158195     -3.04731630042655
  H   -1.96930554867942     -1.42748451288518     -2.86049130514643
  H   -0.54011090223081     -0.91609520952310     -1.95876423520431
  H   0.15060775163209      0.49482103029108     -4.03545760920767
  H   -1.08178775151680     -0.38817444475652     -4.94752100514041
  H   0.02334267395835     -2.58294443871636     -4.33763099030249
  H   1.17493624359709     -1.71713549371979     -3.30632182943041
  H   1.98085373721427     -0.43503717450102     -5.39443828116551
  H   0.99956290714221     -1.53247930819547     -6.37847549402208
  H   2.27961994397353     -3.51023626026513     -5.41524284285573
  H   3.23884393206296     -2.39519497436804     -4.42206991061593
  H   4.51595521194191     -3.04533456841547     -6.49717387767668
  H   3.19726603160457     -2.41336574452059     -7.53170763354393
  H   4.15741388540631     -1.29270103852575     -6.52248139637618
  H   -0.89284271446285     -0.87895045660799      3.94204285563362
  H   -0.10864470783037     -5.24672699816003      1.02980150034473
  H   0.37153469139836     -5.84095774947076     -0.57374881162025
  H   -1.63337783330021     -7.12229254575497      0.25364644511102
  H   -2.56464031929974     -5.60642433440080      0.44379854581479
  H   -2.10093194575188     -6.16341135441153     -1.18714284183379
  H   2.27094083752581     -1.04372841283908      2.12873765766834
  H   3.41545992078065      0.74634948060342      0.83159116537263
  H   4.40185493575421      0.34599727765205      2.26186569869120
  H   4.88445088066559     -0.26745467864050      0.64872203246468
  H   3.38827812764480     -3.23878425660274      2.60515031124083
  H   4.92219812726230     -2.61898626436902      1.88967737587014
  H   4.26532311520901     -1.88249841664708      3.38572778849836
