115
Coordinates from ORCA-job 14
  O   4.14596081810313      2.26495976583396     -2.04984732863647
  C   3.39004874335582      2.19932299508155     -1.08242002786156
  C   2.05215418120585      2.97116624899882     -1.06694265407490
  C   2.26504572666177      4.47490997406206     -0.80137551482995
  C   2.18947709720771      4.56831630204990      0.73179425788496
  C   1.05850279376613      3.58838620238294      1.08399893945360
  N   1.15245744654405      2.56773001046114      0.02476328022850
  C   0.50909548007696      1.36404362959452     -0.04537127656699
  O   0.70914451751289      0.59509443049616     -0.99847339666022
  N   3.68034282993837      1.51957741268404      0.07090073463751
  C   4.75930053999796      0.55369429860989      0.14119577748463
  C   4.08795197050577     -0.77559651879655      0.54546860139386
  N   4.69275377367351     -1.93693447488935      0.14117078802209
  C   4.11145775770528     -3.24359106278883      0.48302479901102
  C   2.65776741971897     -3.31294911278178     -0.05875666421967
  N   2.50321066723989     -2.83967751390654     -1.33011421616810
  C   1.18032888896090     -2.48373375817847     -1.85094059030247
  C   0.29441646483621     -3.71253681319379     -2.14762198456772
  C   -1.22274904528482     -3.43798177620602     -2.12724937287711
  C   -1.79589636295624     -2.88868488184196     -0.80781002942779
  N   -1.04517837794941     -3.03821488208533      0.32747924022922
  C   -1.54360161991445     -2.62294681852004      1.63174932124464
  C   -1.22463442539840     -1.15346074528455      1.99182044858475
  N   -0.72597291251568     -0.40756366655095      0.97083495989460
  C   -0.47276686633157      1.00881827957727      1.07821641610374
  C   -1.78455017187139      1.81696938517829      0.98318960921305
  O   -1.44293343703307     -0.69880802057850      3.11793976828630
  C   -1.04423873098758     -3.56282797635776      2.73643286063003
  C   -1.45091390887829     -5.03683149923151      2.55894235728859
  C   -0.85057602487296     -5.88442046813153      3.68979837333581
  C   -2.97335061648469     -5.21713617561096      2.47166239883947
  O   -2.90634172546124     -2.34506789190259     -0.80006573462346
  C   -1.75021412541666     -2.53476735014900     -3.27302273576623
  C   -1.27244236650890     -1.08889879864127     -3.30005976458838
  C   -2.38654470126393     -0.03126954779701     -3.21335225449213
  C   -1.76316283822357      1.37280553510734     -3.22521353451822
  C   -2.64181059013243      2.50821796099341     -2.68413378926124
  C   -1.80417523193102      3.72648771767387     -2.27357849632364
  C   -2.58084630834294      4.85162574585686     -1.58415173504245
  C   -1.67273341152586      5.96168398232486     -1.04295721279160
  C   -2.41186897739884      7.09972701147945     -0.32976441833629
  C   -1.47411995652994      8.17144109882669      0.23403296015349
  O   -2.52147736823832     -2.97325447794432     -4.10712932152983
  O   0.60446017066008     -4.27271435392361     -3.42093908266201
  O   1.74029433447532     -3.80905694949476      0.60380781275230
  C   4.16368960843614     -3.58997333903900      1.97710304001945
  C   5.58591627139847     -3.67900723883177      2.52906904504633
  O   3.02209108881974     -0.78246438188145      1.16787924156832
  C   5.88517797046426      1.00164242712259      1.12181895989949
  C   6.35575859950454      2.41743913705083      0.76219092239717
  C   7.06468074867780      0.02001206416937      1.13508159471012
  H   1.58045013956837      2.76906289382749     -2.04818732107839
  H   1.43756127735704      5.04953650601693     -1.26604704777821
  H   3.21852060675154      4.83394525616123     -1.23212899086576
  H   3.14382900156750      4.22700744501745      1.18345026235045
  H   1.98478135300841      5.59135057974584      1.10190731656547
  H   1.16373839691830      3.13515553781370      2.09060475356306
  H   0.07049335138306      4.09673135092549      1.04606360528493
  H   2.90805057735513      1.31510666638599      0.71652308658898
  H   5.19425912695343      0.47934298729709     -0.88087302099210
  H   5.61415920128659     -1.89061626228271     -0.29574409387739
  H   4.70301377795159     -3.99548697698291     -0.08498779861734
  H   3.29447954830126     -2.30251287384290     -1.69136958814552
  H   1.33263406395278     -1.92008762921977     -2.78890458176370
  H   0.70640440333271     -1.78480531038497     -1.13612736951280
  H   0.48790104288452     -4.46166568105375     -1.34582039035813
  H   -1.71839746656125     -4.41634828847295     -2.29924803010903
  H   -0.09018721795834     -3.43716314210032      0.30791612278539
  H   -2.65284753771138     -2.64919054147298      1.56795149977747
  H   -0.56939523350495     -0.82257863544468      0.04948249724698
  H   -0.00568020082337      1.20208435709154      2.06932633903226
  H   -2.44611806114141      1.50201935656710      1.81221964119647
  H   -1.62110536634089      2.90930326155692      1.06150219370844
  H   -2.28915663743404      1.60297244424807      0.02178436080383
  H   -1.42994991292182     -3.16446425350345      3.69782410384032
  H   0.06425202106346     -3.49131816443177      2.78455718127509
  H   -1.01143497619721     -5.39308163434152      1.59930459986871
  H   0.25321403616232     -5.77778146571840      3.73161482344519
  H   -1.25478667193131     -5.57102475446920      4.67645901549157
  H   -1.08390386958700     -6.96121349738370      3.55835566386837
  H   -3.40755138035244     -4.69333529529479      1.59597832561385
  H   -3.24297824303420     -6.28944446940928      2.38035542406329
  H   -3.47218845773145     -4.82177016947805      3.38285644411506
  H   -0.70891183859235     -0.96010063520296     -4.25193968918245
  H   -0.56298478656832     -0.88564381516023     -2.47782554454609
  H   -2.94003495094073     -0.19833187564408     -2.26449778089421
  H   -3.11711771631860     -0.17647527343995     -4.03623926176943
  H   -1.40479859850070      1.62266406134244     -4.24927902133449
  H   -0.84722342838583      1.33052289225234     -2.59746413236119
  H   -3.20037171448871      2.14222667769132     -1.79282523629405
  H   -3.42159924026985      2.80212821114772     -3.42116575158531
  H   -1.26799652006142      4.13099054893310     -3.16229606137179
  H   -1.00246990510240      3.37583373971615     -1.58339870467407
  H   -3.17554217868625      4.42435165441855     -0.74473258297621
  H   -3.32596416533057      5.28610569379724     -2.28786092144560
  H   -1.06242551073478      6.38120887293740     -1.87574055065198
  H   -0.93664905746148      5.51026633407078     -0.33665084330818
  H   -3.03127836467841      6.67292263216114      0.49073112674375
  H   -3.13390978105088      7.56550027010906     -1.03692944467483
  H   -2.03221647038550      8.98097140320603      0.74674525568180
  H   -0.76442810663298      7.73791318037805      0.97087506802046
  H   -0.86764530897306      8.64035651440500     -0.56949753350505
  H   1.54338612185312     -4.53606028979425     -3.38839273762329
  H   3.62920029918050     -4.55266807628963      2.10299031808295
  H   3.56414940061208     -2.83657820272681      2.52507592412278
  H   5.57825362486383     -3.95495449647969      3.60189348233062
  H   6.19133893589834     -4.44080930390509      1.99298975376370
  H   6.12001268951701     -2.70943892154674      2.44762293345194
  H   5.43315513621981      1.02423468305045      2.13974420082467
  H   5.51870488044497      3.14061766178647      0.79980692155690
  H   7.13935744003808      2.75981375859567      1.46767710038589
  H   6.77474165794196      2.44678175339446     -0.26477349803132
  H   6.77479617657890     -0.98721731199232      1.49378765599332
  H   7.50819593944169     -0.08193589243532      0.12026916162840
  H   7.86836884001013      0.38519283278033      1.80503599407095
