115
Coordinates from ORCA-job 15
  O   6.13192904757047     -2.61965416318700      1.29280107916467
  C   5.98750962254183     -1.47869469784283      0.84836598695043
  C   6.62244565146565     -0.23313676798806      1.52727631105692
  C   7.37361537313949     -0.61148744452268      2.80697560737399
  C   6.27107849269832     -0.56583683878570      3.87739539298335
  C   5.42914410840430      0.65476734736012      3.47783547879652
  N   5.58609357336904      0.71548544156000      2.00760217840614
  C   5.00779690092510      1.61860924178153      1.17551441928061
  O   5.15921579163681      1.58834794831253     -0.06366998995475
  N   5.24745751272615     -1.18251551890029     -0.25593401305649
  C   4.58505204355015     -2.22172085422666     -1.04020043198693
  C   3.50939389045382     -2.95102422885638     -0.18667872211498
  N   2.90434953449954     -2.14378152808093      0.75631817609098
  C   1.92342567392098     -2.65610071912634      1.70219366107782
  C   0.54272659970108     -1.98761286559459      1.53970929859418
  N   0.40264794479340     -1.20362594356414      0.44405932589145
  C   -0.84350906310355     -0.55109764647887      0.06222444930612
  C   -1.42453657906079      0.33624783067868      1.20061261801375
  C   -2.09321821879224      1.66117109459500      0.73927868487914
  C   -1.06209630826638      2.45294286944043     -0.07078284584240
  N   -0.37571481754780      3.37887990744323      0.66573793940710
  C   0.90203863666225      3.91954284929044      0.22843160919279
  C   1.92127871135190      3.52009204289716      1.30852811601834
  N   3.14949067626727      3.12334256353189      0.87349851943982
  C   4.18997644793106      2.74491944595053      1.81268142871003
  C   5.10885326417388      3.93219811062735      2.16747045694855
  O   1.62198304286413      3.57261874373605      2.50699139918736
  C   0.85304076213561      5.45317288310748      0.06675388486392
  C   2.16341692825712      6.11251746240082     -0.40421958666407
  C   2.01102690230299      7.64094771424153     -0.40992905759685
  C   2.61156442613646      5.60245642056325     -1.78281760436571
  O   -0.80582468660745      2.22368672576970     -1.25976017352580
  C   -3.44664647835643      1.55654009487422      0.00638546776908
  C   -3.57972183108473      0.56529121085559     -1.12857020201954
  C   -4.88840966208984      0.67740776234494     -1.90744726137668
  C   -5.01629081794223     -0.37257284355193     -3.01609109802127
  C   -6.32198741932008     -0.26843926214116     -3.81242818685348
  C   -6.45831260566671     -1.32032350308679     -4.91917503624284
  C   -7.76373106666812     -1.21596148957543     -5.71632156158746
  C   -7.90130495614460     -2.26864186912696     -6.82227367707246
  C   -9.20740814279561     -2.16490055108004     -7.62032940679210
  C   -9.33556797293308     -3.22056746617468     -8.72278701214194
  O   -4.35728056857511      2.29709408246936      0.34517653030922
  O   -2.35238801181601     -0.35768052658250      1.99399409624069
  O   -0.35767880628329     -2.18442814660633      2.37268170561297
  C   2.41091884858377     -2.57213074832984      3.15791489717104
  C   3.59449152411783     -3.49525076923056      3.45094763644492
  O   3.15997768114122     -4.10868924055588     -0.38811673980484
  C   5.55088899329061     -3.21198745087308     -1.75002391383044
  C   6.81455475378002     -2.49829546820376     -2.24938797570823
  C   4.83219451451915     -3.91595515735888     -2.91173444585169
  H   7.24951263902732      0.28872445088089      0.77395850806512
  H   8.16607321093584      0.13581740517193      3.01597491426282
  H   7.83238278030133     -1.61235463931617      2.71111196537197
  H   5.65978846559305     -1.48787233624283      3.81422519850905
  H   6.65878004037514     -0.48326117746876      4.91057315719919
  H   4.36148011279199      0.55345374605444      3.75875865061724
  H   5.81625298929389      1.58659194430621      3.94433946247837
  H   5.22905174571959     -0.18861418003524     -0.55031229269907
  H   4.02101077149775     -1.67792650953080     -1.83151483323089
  H   3.38399691028836     -1.26756875672739      0.98253878373994
  H   1.78051509857909     -3.72444384768101      1.42350654887171
  H   1.21303726692488     -1.15669062586853     -0.17766344885797
  H   -1.60480515307915     -1.31417590557082     -0.20503028419761
  H   -0.63212792008940      0.05763356206327     -0.83631457533426
  H   -0.53569514693739      0.66676299942284      1.80081705074837
  H   -2.33594321396569      2.21951406441227      1.66513573462004
  H   -0.53315776406129      3.43156738260704      1.67808353579795
  H   1.12688269522866      3.43770744540680     -0.74476352170210
  H   3.37534438405535      3.03040444402562     -0.12179013529644
  H   3.67068841168871      2.40743032316339      2.73202239687997
  H   4.50096044203613      4.74412954416132      2.61084374233740
  H   5.88743808646154      3.63975828681464      2.90051508697205
  H   5.61176869169524      4.31131138458345      1.25590601077210
  H   0.55243820764877      5.88576327878680      1.04532767081868
  H   0.03615698989160      5.68441853525493     -0.65082360394008
  H   2.95983288689844      5.85622723498598      0.33177496089593
  H   1.72016326877804      8.02313973588546      0.58995422592753
  H   2.95709628027177      8.14019977666116     -0.70323846855352
  H   1.22721270485799      7.95771513696404     -1.13058635090116
  H   2.81080303757567      4.51115515547715     -1.79366712781327
  H   1.83234850394225      5.79885298661527     -2.54962142178462
  H   3.54297546809578      6.10630696215797     -2.11213078624366
  H   -3.47545582181926     -0.44586550315656     -0.67439107137474
  H   -2.69077822086081      0.69616422082617     -1.78447333683909
  H   -4.96758437538610      1.69839613133780     -2.33997939018830
  H   -5.74019051751064      0.59394256371350     -1.19942521408101
  H   -4.93682238537160     -1.39141711065332     -2.57180327260062
  H   -4.15158312142189     -0.28446205828387     -3.71326603372737
  H   -6.39971653053102      0.74923954500770     -4.25851729977451
  H   -7.18527228487750     -0.35325838962091     -3.11382169597901
  H   -6.38076905872339     -2.33764671296702     -4.47167680963762
  H   -5.59339520006029     -1.23571072364912     -5.61638989052936
  H   -7.84088172430019     -0.19878600161110     -6.16416334934699
  H   -8.62816227757054     -1.29960989971929     -5.01859995960557
  H   -7.82402953377739     -3.28590332395877     -6.37410580535648
  H   -7.03640397773695     -2.18523406476155     -7.51994193907357
  H   -9.28224835243147     -1.14712151797686     -8.06540051909966
  H   -10.06920137760323     -2.24750271826247     -6.92033719512559
  H   -10.28851815076782     -3.12003972494745     -9.28145371680055
  H   -8.50687702197196     -3.13861040498234     -9.45767809166443
  H   -9.30101181233321     -4.24815381796856     -8.30286461734032
  H   -1.84817423200285     -1.15910714124821      2.29805767747653
  H   1.54148204054505     -2.81072157690259      3.80273235328829
  H   2.67183550821653     -1.51051483153008      3.38024534133267
  H   3.93238086221332     -3.38624827251434      4.50143307477772
  H   3.31264342671198     -4.55709888480285      3.29840770441990
  H   4.45806274040152     -3.28912467963750      2.78603442520434
  H   5.84521579864627     -3.97118029687076     -0.99648335263156
  H   7.41901279541012     -2.07715570292623     -1.42253250467939
  H   7.45945580660488     -3.21207355080888     -2.80043894831911
  H   6.56475240758616     -1.66977928531017     -2.94713750431164
  H   3.92976540895451     -4.44543907920705     -2.55668198064949
  H   4.53286425229727     -3.18201470554572     -3.69216073114264
  H   5.50470217529179     -4.65526637268246     -3.39212451372248
