115
Coordinates from ORCA-job 17
  O   2.67752821793735     -0.87570139181574      1.64527816281779
  C   3.57471210111594     -0.37033177081883      2.32898753022209
  C   3.31941623715123      0.84496241124334      3.24969659817414
  C   2.71453944285682      0.43692481352546      4.61773010995152
  C   1.20186906722322      0.61019142841253      4.40886414464699
  C   1.12452854403542      1.85671262163088      3.52246555193344
  N   2.29580628522883      1.69724072542704      2.64313702396843
  C   2.45314491405607      2.05408651519301      1.33831158962538
  O   3.52934778416422      1.85536974680913      0.74749847749738
  N   4.86450519574339     -0.80657255923745      2.36735737100179
  C   5.45848466930693     -1.86348195282380      1.54376378922847
  C   5.23077574761562     -1.65609480642239      0.02434136078706
  N   4.95653945974515     -0.38242401168546     -0.37565344150824
  C   4.66415487891344     -0.07792220627773     -1.77376367687893
  C   3.46906539656338     -0.90492819519988     -2.30374901076313
  N   2.50566284554668     -1.19084101942040     -1.37426249816931
  C   1.32908462764348     -1.94683864100390     -1.74582066225704
  C   0.49578446712252     -1.27595358547730     -2.86264614908427
  C   -0.97465402790224     -1.76036537051042     -2.84174382429975
  C   -1.68247262589962     -1.54197552291927     -1.46826397875091
  N   -1.32507435469691     -0.35934369119334     -0.89643953495952
  C   -1.61469641335778      0.00773119843509      0.48091985087182
  C   -0.90220630864172      1.31979181605261      0.82792654559638
  N   0.34586925138496      1.47794382587684      0.29070504872627
  C   1.22417388010601      2.61125407314134      0.58516223013555
  C   1.64305415508864      3.32766010077840     -0.69715536352949
  O   -1.39902720479256      2.12911864896040      1.62092932075084
  C   -1.16366283718865     -1.09295701042066      1.49607785223709
  C   -2.20092933958883     -1.43294370545801      2.57929701691040
  C   -1.74338848751363     -2.66821135495221      3.36834963838449
  C   -2.50577828781271     -0.25762447745131      3.51883172494473
  O   -2.46140061295231     -2.36095514135331     -0.98106705655651
  C   -1.81994782664428     -1.07910116977267     -3.91794201458032
  C   -3.22683788276593     -1.61002421474028     -4.13721560080926
  C   -4.26518054177255     -0.47319263343220     -4.09343615685813
  C   -4.27609439962757      0.23840488177292     -2.73559935007642
  C   -5.23754567453863      1.42812412655717     -2.64014345323167
  C   -5.00618968867516      2.29346613167424     -1.38954235561162
  C   -3.67416527283728      3.05622815100891     -1.40585235481639
  C   -3.43242484922574      3.93904945155900     -0.17810333186430
  C   -2.11283748361248      4.71656122113505     -0.25527036380355
  C   -1.76404168144179      5.46735677823409      1.03168576137049
  O   -1.39856993376607     -0.09697569691525     -4.53292772093049
  O   0.55624251519500      0.15494585196078     -2.71950595289206
  O   3.35858201216731     -1.20433221526353     -3.49259361145939
  C   5.88409276307061     -0.19751901366683     -2.69766343855758
  C   7.00794056616148      0.76800276848338     -2.32139846044983
  O   5.35414789787263     -2.60463786773759     -0.75268467440541
  C   5.14421166273554     -3.31379736039957      1.98871525139960
  C   3.68763671304169     -3.74712154847849      1.77546801221295
  C   5.59572153837559     -3.53374475322471      3.43795534975238
  H   4.27279669197977      1.40393880576440      3.36977952632634
  H   3.08175008789120      1.12736683444906      5.40469681676024
  H   3.00835921345127     -0.59030412554425      4.90997970182570
  H   0.78904643556858     -0.26038932375939      3.86090703723080
  H   0.63816546823635      0.72082907687653      5.35508808396148
  H   0.17994074570549      1.94831973327480      2.95661654465016
  H   1.24029280059256      2.78167438828065      4.13332509251432
  H   5.50251686994422     -0.26343897877502      2.95036729448249
  H   6.55508380117103     -1.73383183449036      1.67582122026539
  H   4.74253421469993      0.35609647569103      0.30620430056480
  H   4.31450277436498      0.97796357624745     -1.76882551973603
  H   2.69008014831507     -1.04430698303857     -0.37209513982202
  H   0.72711418658861     -2.07141380134600     -0.82533306075078
  H   1.60273148273071     -2.96436219068368     -2.10495363664306
  H   0.95406748968199     -1.54223456783434     -3.83689843151308
  H   -1.02743614554241     -2.85688082926120     -3.00386978572641
  H   -0.66547787653026      0.20620195075030     -1.46752896632443
  H   -2.70237640473679      0.19846949006930      0.60024112486797
  H   0.73498950204065      0.76692086578007     -0.33991009298893
  H   0.63747148204807      3.28578509845259      1.24061468969836
  H   0.74977750810419      3.73848339814135     -1.20474242318847
  H   2.34216701178098      4.15622253905994     -0.47323637412798
  H   2.15322125842173      2.62541093442255     -1.38407217195900
  H   -0.18975332413355     -0.80350856409188      1.94933179483833
  H   -0.96626791375653     -2.01515116048780      0.91724109110673
  H   -3.13546563917171     -1.70098558902088      2.03554207376064
  H   -1.58071731387068     -3.54048887286302      2.70273042040770
  H   -0.78731779926709     -2.46693106644526      3.89893557239185
  H   -2.49292984754457     -2.95820225834561      4.13299133437852
  H   -2.80445044442177      0.65606400103293      2.96928418433936
  H   -3.31517666827212     -0.52043026135086      4.23056879676373
  H   -1.60866171667218      0.00743835274709      4.11748058060583
  H   -3.45096113521807     -2.38869808507744     -3.38046930519522
  H   -3.23329289221788     -2.10276617205197     -5.13496573930214
  H   -5.26931032848994     -0.88622067238953     -4.32861854402138
  H   -4.02090399471848      0.25853163370612     -4.89266445806783
  H   -3.24741036728982      0.59929420347192     -2.52553791925687
  H   -4.50041933833441     -0.49402181340332     -1.92888829315719
  H   -6.28762341190982      1.06211745667184     -2.65924009433525
  H   -5.12125400352553      2.06687819807924     -3.54540552630194
  H   -5.05364602628131      1.65257039448709     -0.47926341442828
  H   -5.83809971060511      3.02451672545304     -1.28673030343692
  H   -3.62489900257949      3.67794512560581     -2.32949251895809
  H   -2.82922796119349      2.33541963388261     -1.49013289773677
  H   -3.41790262132060      3.30314939834959      0.73332272555126
  H   -4.27977886662610      4.65151085958466     -0.05282331934951
  H   -2.14758768832634      5.42227706880921     -1.11598427798619
  H   -1.29743762152922      3.99757133527546     -0.49008821598215
  H   -0.80856158630630      6.02434702699482      0.93687703318917
  H   -2.55184733579204      6.20292953722360      1.29983729751629
  H   -1.66445246606794      4.75439041216998      1.87532999761146
  H   0.06331149329691      0.47222764805805     -3.51996913035041
  H   5.52560747481970     -0.01874520060079     -3.73073795096577
  H   6.23401200379867     -1.24874295340566     -2.66721663034218
  H   7.88293152205828      0.64837544391823     -2.99153420546204
  H   6.67728104663189      1.82675969277690     -2.38625157396970
  H   7.35709287594730      0.59502350684276     -1.28193086558717
  H   5.77360666297646     -3.93244969930945      1.31475847415819
  H   3.37121708132416     -3.56939399559272      0.73070959991486
  H   3.58671389307544     -4.83188351606296      1.98454308047079
  H   2.99083382721090     -3.20198680332430      2.44118070855701
  H   6.66911106999129     -3.28737377883703      3.58187149969527
  H   5.00641921306191     -2.90334118296084      4.13790680697843
  H   5.44979301282646     -4.58970094184595      3.74174500554576
