115
Coordinates from ORCA-job 24
  O   6.24382244729703     -2.77660703189597      0.94645878674001
  C   5.41537027041842     -1.87115886014996      0.99543533090485
  C   5.79230520945606     -0.44249980095177      0.58291799232661
  C   6.74106735121198      0.19880444844873      1.62938720692505
  C   6.36016013946449      1.68713937771267      1.61342863822808
  C   4.84131328627790      1.64187944260459      1.40961656266012
  N   4.67003320930961      0.50948895210719      0.48474062047436
  C   3.87619604806919      0.46443700687703     -0.64235843691441
  O   3.96833799401449     -0.46362170548756     -1.44762247760914
  N   4.14623852861629     -2.01754811506266      1.49462745155642
  C   3.64979288220895     -3.30872238834107      1.94943932559625
  C   2.36699796120347     -3.66859645429145      1.17862701236071
  N   1.27934669047179     -2.88989158493931      1.51456957972778
  C   0.06819011149958     -2.87679363112787      0.72262409821219
  C   -0.20751020449904     -1.42485320316942      0.33192173863165
  N   -0.94625871060176     -1.19396273144989     -0.77036845724322
  C   -1.31789791332926      0.16000669225285     -1.15516544777974
  C   -2.50912112278513      0.70055849838647     -0.34885811408147
  C   -2.57823414863561      2.25072996373168     -0.33297726011083
  C   -1.58287954622706      3.01048915386289      0.57404130547730
  N   -0.64907829967910      2.26736380676947      1.24101296469523
  C   0.49615466304720      2.88954660214702      1.89748031778550
  C   1.73468642228811      2.89124412443772      0.96815872702150
  N   1.95964807941236      1.71313202579526      0.30615989955039
  C   2.86399540607641      1.61446935764064     -0.83397897111857
  C   2.09503341002242      1.43979651579405     -2.14557019880533
  O   2.46409935916104      3.88047661448812      0.85678466817529
  C   0.78336310421930      2.20626604956602      3.24723197145833
  C   2.01673344750330      2.73370994570667      4.00295714885061
  C   2.19241481986507      1.96264478297559      5.31911947228826
  C   1.95835417202599      4.25090955280970      4.23197497197069
  O   -1.66541884129226      4.23514145410635      0.64570537758633
  C   -2.40356076529146      2.80767782164128     -1.76426309629765
  C   -3.67354279096291      3.15453673521853     -2.50842940727999
  C   -3.51329247997748      3.40552295612411     -4.01182510560290
  C   -2.88957916211634      2.23745996261815     -4.79799306895901
  C   -3.53991975616601      0.87022193081774     -4.55636573132222
  C   -2.88493977787374     -0.25536073924838     -5.36983847832420
  C   -3.37468796616729     -1.66719639031659     -5.01184474675186
  C   -2.92965695200315     -2.14209298988770     -3.62198127832193
  C   -3.41482440528218     -3.54685749558259     -3.24467108594885
  C   -2.95821359702587     -3.97466851363341     -1.84698185327223
  O   -1.28583699250640      2.91320919122180     -2.24977703043351
  O   -3.67726097632952      0.11228989962460     -0.92597758228209
  O   0.22002295183628     -0.49225677939395      1.05281789047096
  C   -1.14798732168752     -3.46991675013570      1.47675752721557
  C   -0.93545823662884     -4.93349877312271      1.86194951490731
  O   2.30544898436939     -4.55784891465427      0.33525609771658
  C   3.48224310313011     -3.38329307308619      3.49024033074709
  C   4.79138356266528     -3.00811868230837      4.19634509684458
  C   2.99201208734914     -4.77656720075075      3.90608968398466
  H   6.27275471155216     -0.54090141572077     -0.41309917521593
  H   7.80187150813744     -0.00361994779361      1.39295294814582
  H   6.53991500284238     -0.23444956018516      2.63186962801760
  H   6.65330910006965      2.22590514902731      2.53577199522931
  H   6.83537510881632      2.20178092853028      0.75181633374058
  H   4.32174248543340      1.42854300033081      2.37210538001859
  H   4.40637515332791      2.57852702891211      1.01195409875525
  H   3.52074066055765     -1.21011196601481      1.42444114656209
  H   4.41575359620038     -4.04561576139429      1.63424700576504
  H   1.39431235643364     -2.08366762375232      2.13597107368641
  H   0.27613015422601     -3.49535875860962     -0.17785847967964
  H   -1.31623607627283     -1.98528719757162     -1.30397685338616
  H   -1.57525936902735      0.16300704165463     -2.22975307815820
  H   -0.44479115840208      0.82613692218831     -1.03689802511190
  H   -2.40003875554351      0.35905075167781      0.70790293305349
  H   -3.58670377379299      2.53175146450937      0.03923474620997
  H   -0.59925965794947      1.24420474090488      1.13113985556464
  H   0.23687086684780      3.95538033164167      2.03792727187364
  H   1.32121959731445      0.92114006069726      0.46879103490691
  H   3.41543150158064      2.57976487130088     -0.84726196181657
  H   1.32297495270791      2.22691788656786     -2.24329949877170
  H   2.78329537820508      1.48729014580298     -3.01084857547723
  H   1.61230528577522      0.44275872107388     -2.17868034885065
  H   0.89846168235822      1.11364164492723      3.07269623514754
  H   -0.12215778728407      2.32765194572855      3.88261624637354
  H   2.90937339152730      2.52793139308939      3.37062517498433
  H   2.26229246530420      0.86802249167501      5.14574782245469
  H   3.11136930627962      2.28009840144410      5.85307005272952
  H   1.33253825412132      2.13825158715835      6.00083033547964
  H   1.99416815769240      4.80114279736576      3.27147352735027
  H   1.02917560210487      4.53813928227541      4.77015330154906
  H   2.81854531521654      4.59080883608005      4.84442536391949
  H   -4.08307891777871      4.05341389062464     -1.99060094664798
  H   -4.40650202174998      2.34609192971046     -2.29197843883102
  H   -2.88808860134632      4.31028194713119     -4.16085095201749
  H   -4.51677905078887      3.64645645242852     -4.42497342834630
  H   -1.81231321521169      2.17157603660133     -4.53860892641609
  H   -2.92950527859855      2.48007724816554     -5.88252767458998
  H   -4.62794313130499      0.91310742358730     -4.79490071432913
  H   -3.48814754801129      0.61953358433390     -3.47479762141858
  H   -1.78040307972219     -0.20901115324835     -5.22807845909347
  H   -3.05235464161246     -0.06652782599695     -6.45275116496733
  H   -3.00822349159641     -2.38985144780826     -5.77364595000461
  H   -4.48639234591914     -1.70143679851691     -5.07147008118416
  H   -3.28570380427238     -1.42774014407350     -2.84771482085487
  H   -1.81357439813425     -2.11772758360884     -3.58341334507577
  H   -3.06161951444975     -4.28381052639012     -3.99931610267456
  H   -4.52593687241176     -3.57179586062728     -3.29439641970638
  H   -3.34991872253819     -4.97073245529511     -1.55814906640985
  H   -1.84868774788555     -4.04303958379911     -1.78795414789733
  H   -3.30104245526180     -3.24640164940976     -1.08058050182191
  H   -4.43994780243127      0.31709338756985     -0.35339447438007
  H   -2.04728221648137     -3.36490630657164      0.83409365622937
  H   -1.33254658904056     -2.84756663540661      2.37984722224770
  H   -1.81485893031078     -5.33475254526198      2.40366528007206
  H   -0.75951944140026     -5.56304955693736      0.96698762091324
  H   -0.05003875387161     -5.04261548191730      2.51907807883696
  H   2.70731425066909     -2.63660409761112      3.78858986498009
  H   5.10981601956949     -1.98096007589290      3.93076480445023
  H   4.67411716541940     -3.05608985518512      5.29790052744814
  H   5.60935228426124     -3.69674682458211      3.90189400671309
  H   2.02559483928490     -5.03613758374074      3.42847301094470
  H   3.72830541290977     -5.55333048245960      3.61197180741977
  H   2.85409784823326     -4.83801367583311      5.00426035873096
