115
Coordinates from ORCA-job 25
  O   2.12822864005934     -2.89237305330317      0.29946300284031
  C   1.59531051028665     -2.44198496657084     -0.71678059475280
  C   2.43953421726253     -1.76292864152469     -1.81746462134841
  C   3.63168399092887     -2.63987018505028     -2.25040171238048
  C   4.74957018519541     -2.23027474380384     -1.27651908610379
  C   4.55165751802788     -0.71416440278925     -1.13625012938934
  N   3.09431902045460     -0.55268074868463     -1.27664685016828
  C   2.33864366323632      0.49702426686427     -0.87825477249608
  O   1.09074581535606      0.43803654726461     -0.89124593063901
  N   0.25287306017503     -2.47501272776651     -0.95986523011647
  C   -0.74156307831608     -2.87710579560420      0.04058905663167
  C   -0.39527972818753     -2.32365901983005      1.44795781541415
  N   0.02451720694163     -1.01783824318732      1.44821255352751
  C   0.62637443807863     -0.43692396680723      2.63648576857006
  C   -0.08462637116544      0.85968933591622      3.04381455890682
  N   -1.40550263710957      0.93822572712916      2.71731537360879
  C   -2.20667337092696      2.08141457713589      3.09481457562490
  C   -2.99688398428116      2.77795304889831      1.97535187748311
  C   -2.30643911208740      3.17455509333725      0.65220330540452
  C   -1.02882295204340      4.05785723458553      0.66375878203144
  N   -0.01994953794508      3.71882289805347      1.52112144359633
  C   1.22740765294862      4.47843138382599      1.57498061985943
  C   2.40635485450279      3.71084328322434      0.93813188945163
  N   2.06633262266545      2.58974846193507      0.24077685452894
  C   3.03864364388179      1.80220199685801     -0.48773292599713
  C   3.55103613959389      2.53527860378297     -1.74650957215185
  O   3.57225168297080      4.10932308704207      1.01956647035517
  C   1.50273815285713      4.92604552915749      3.02544514429853
  C   2.66818919350901      5.90818128871359      3.25378424136650
  C   2.72027976309846      6.29268902620505      4.73988082089340
  C   2.57094076703500      7.15006632004666      2.35739493462092
  O   -0.92293644624471      4.97289892912892     -0.15753974894607
  C   -2.07806258296538      2.02148970418746     -0.35488209586670
  C   -2.10090060091383      2.46806947664370     -1.80680313051540
  C   -1.31179389898649      1.58624449423770     -2.77945348129785
  C   -1.91482778189307      0.20332814586009     -3.05631007981582
  C   -0.97293211934825     -0.68518027818730     -3.87374422197846
  C   -1.50729836476028     -2.09464049076312     -4.15231093843831
  C   -0.45121533904964     -3.05319626618929     -4.71508776264826
  C   -1.00507954193973     -4.42007077110531     -5.13121098155294
  C   0.07601227178202     -5.41715208355067     -5.56598909168028
  C   -0.48378989712016     -6.77991992998300     -5.98403461564294
  O   -1.89769153209459      0.85756395294449     -0.01753719312505
  O   -4.11969831669942      1.99931368733585      1.56003313248495
  O   0.50144615930039      1.77612003083704      3.64792936772483
  C   2.15301821464738     -0.25040410048744      2.50109573773278
  C   2.89049753400988     -0.20494206529500      3.84174394525006
  O   -0.56794492243078     -2.98242023321233      2.47160036816362
  C   -1.05824019337497     -4.38892805138781      0.05873646117907
  C   -1.73910053278891     -4.80402152317453     -1.25121540497789
  C   0.16257759315641     -5.26974900847068      0.35342022490013
  H   1.79417636861318     -1.47345099447901     -2.67209272145661
  H   3.90703737354704     -2.39632965906873     -3.29756272143099
  H   3.38846518795578     -3.71832110358563     -2.20317033152890
  H   4.57394947078052     -2.71926117045943     -0.29926571202663
  H   5.76375729890922     -2.49070934677072     -1.63604919531434
  H   4.89576880516638     -0.31971734178642     -0.16001414996471
  H   5.08495847651903     -0.15661232447528     -1.93824450183056
  H   -0.07777589420685     -1.92603036565826     -1.75594670873885
  H   -1.67249080824074     -2.34481941805338     -0.25483636612209
  H   0.21158364263808     -0.55119810067171      0.54736090326739
  H   0.41801103753828     -1.17508334264268      3.44558269053860
  H   -1.75394669357082      0.31496536111439      1.97746706837797
  H   -1.53314330530401      2.79952143709417      3.60526343266369
  H   -2.95784800185939      1.78547752312469      3.86673804808388
  H   -3.34112350014134      3.73941447990954      2.43448625150449
  H   -3.03447656276507      3.83888348395891      0.14610428706460
  H   -0.12058253247071      3.01678557238927      2.26848068639312
  H   1.06781349620449      5.36342729009054      0.92277913564959
  H   1.08989274052918      2.28497176173751      0.16545444043984
  H   3.90468857172371      1.60067638298125      0.18034623588436
  H   4.00773691689792      3.49194701620512     -1.43059522836227
  H   4.31482901063071      1.94001897719558     -2.28447829243748
  H   2.70846036230004      2.74271689243494     -2.43535978966857
  H   1.64558573794191      4.01789915367832      3.64816653543215
  H   0.56233431047143      5.40369496589577      3.38273475962927
  H   3.60642111566960      5.37913752384358      2.98963052653247
  H   2.80343401718970      5.39612909601123      5.38874398413374
  H   3.58890318128139      6.94831799716275      4.95557430556275
  H   1.80254936633064      6.84168363123996      5.04524882511340
  H   2.68383618929657      6.88650658550869      1.28687454986159
  H   1.59672822850100      7.67088436659928      2.48653251914411
  H   3.37288886378503      7.87717217174927      2.60061952408333
  H   -1.75170428122791      3.52189775549839     -1.84098353821992
  H   -3.18199583081021      2.51507705954592     -2.08301017512169
  H   -0.29097862020278      1.44944179086955     -2.36627392323600
  H   -1.19647830225497      2.13753411152060     -3.73790517137957
  H   -2.89132611805765      0.30682149031272     -3.58198580033270
  H   -2.13462230498478     -0.28975225096496     -2.08651020393681
  H   -0.00306148635308     -0.74961672590985     -3.32514180851468
  H   -0.71365956147622     -0.18816682168569     -4.83577103961147
  H   -2.36958111138594     -2.03009924695077     -4.85284320395233
  H   -1.92568272043516     -2.52698637784305     -3.21501911856281
  H   0.34466462751684     -3.20290228197611     -3.94850129704403
  H   0.05800134868751     -2.57868134884359     -5.58466875555581
  H   -1.74032784312543     -4.28346527299661     -5.95650186108785
  H   -1.58404389749741     -4.85490484357665     -4.28566717305480
  H   0.80012759739240     -5.55051981856342     -4.73055700662342
  H   0.66369538592250     -4.97832348067377     -6.40371467924732
  H   0.32069675916876     -7.48033562410265     -6.28745634504054
  H   -1.04568189203364     -7.25546838588560     -5.15270046417867
  H   -1.18355652235952     -6.68269791140601     -6.84072815004002
  H   -4.64921373984365      1.79739797750008      2.35358841523431
  H   2.34364216401119      0.68536484527662      1.93573141599588
  H   2.52059761094244     -1.09849714753951      1.88849885902327
  H   3.98199508920642     -0.07963656812397      3.68941118214018
  H   2.52911083715035      0.63795576416501      4.46049340244395
  H   2.73719973310737     -1.14649971522551      4.40972546174621
  H   -1.77485741238776     -4.51145677238126      0.89858672357525
  H   -2.66201617758734     -4.21852445271368     -1.44681802145897
  H   -1.05407734766453     -4.65326409862458     -2.11169973185820
  H   -2.01733862100050     -5.87713609981089     -1.23396813254250
  H   0.66418219539731     -4.95728545513689      1.28638753456139
  H   -0.15084263560105     -6.32920946063499      0.45373283183316
  H   0.90332893663514     -5.21620396981508     -0.47072137085172
