115
Coordinates from ORCA-job 26
  O   5.45596214943623     -2.67627585662291     -0.92510251792786
  C   5.05704265974574     -1.58864930817180     -0.52091308363239
  C   4.96013669590034     -0.39188453736957     -1.49655570461113
  C   6.34277565690356      0.05924548702164     -2.00227459075349
  C   6.73286449019253      1.16076305760114     -1.00262160082989
  C   5.41095988136841      1.90894608232251     -0.76764723068171
  N   4.39837973221562      0.83865363337706     -0.90250591746385
  C   3.07776290197370      0.90846590432847     -0.61365535649758
  O   2.34696769880855     -0.09799896610938     -0.76268335647881
  N   4.66936488834774     -1.33404030002536      0.76353250411481
  C   4.61970216683210     -2.34206658433203      1.80566833848895
  C   3.20307152522197     -2.90794029771164      2.05389262120987
  N   2.16278856998323     -2.24856993689809      1.45490707135589
  C   0.79066017962543     -2.57971543095652      1.83821871806252
  C   -0.31096262553497     -1.97218851312462      0.97038772837231
  N   -0.06255642889905     -0.76334194135108      0.38608093190590
  C   -1.17294034651111      0.04045243796379     -0.10610340797421
  C   -2.23433727248946      0.25952918171745      1.01869399374345
  C   -2.61636986638189      1.73549544269992      1.29058922229426
  C   -1.34466047387747      2.55132192946469      1.57038828029188
  N   -0.59174529603936      2.08933945554232      2.62701832836611
  C   0.58466115397498      2.79701504848250      3.12486894055393
  C   1.65935369239327      2.98946345014772      2.03878279679196
  N   1.76408955615063      1.97218500391904      1.11917644348788
  C   2.48892742600086      2.22455953176221     -0.12173137178231
  C   1.59201408920833      2.83614949828138     -1.21464197523991
  O   2.40561723967757      3.96724131188574      2.04117065467263
  C   1.13274164097855      2.03078917130008      4.34479853434488
  C   2.41553823411494      2.58773920368517      4.98892166279404
  C   2.29603010903513      4.07566067378928      5.35039346229200
  C   2.77559977482975      1.73760155307777      6.21666896679675
  O   -0.98098211058722      3.51093140968535      0.88811539625819
  C   -3.49842367983840      2.44266466305219      0.23693572364399
  C   -3.06837900899355      2.44364801738736     -1.21946535600074
  C   -3.80352893428528      1.33828836362958     -2.00852449833076
  C   -3.25165122699145      1.15038875160398     -3.42443111645218
  C   -3.98000012930830      0.06230671163793     -4.22128815411359
  C   -3.42061974851002     -0.15063682020704     -5.63249866870553
  C   -4.14843302278531     -1.24024549327689     -6.42832851747934
  C   -3.59019139641240     -1.45494885029104     -7.83981494643814
  C   -4.31879406191492     -2.54477844752868     -8.63665467691533
  C   -3.75461040344511     -2.75205794241355    -10.04548370720124
  O   -4.54152173666916      2.96409036662664      0.59487496056146
  O   -3.40213697674484     -0.49464260926528      0.80751352440610
  O   -1.44822164670867     -2.47210123850213      0.99843271322075
  C   0.53483569880896     -2.08636182152119      3.29762127400298
  C   -0.79453240552283     -2.49910546522577      3.92782462954231
  O   3.03690469857265     -3.85310466643661      2.82892761728323
  C   5.21204125989938     -1.74794321689328      3.11875599634916
  C   4.28844753776570     -0.67759392378799      3.72548513352967
  C   5.57552439509779     -2.82599290584656      4.14629736365528
  H   4.29460396212519     -0.74534851748160     -2.30932481076323
  H   6.25222289268981      0.47516991535179     -3.02679405563861
  H   7.04740924090988     -0.79218756082176     -2.04052576481058
  H   7.08317102094105      0.70671123595303     -0.05218691474128
  H   7.53296458040542      1.83161194285264     -1.36947109100954
  H   5.35149087321211      2.39158811553408      0.22758663319224
  H   5.24436505590671      2.69247196083183     -1.53871043082695
  H   4.41404861399673     -0.37601598202271      1.00916521089673
  H   5.24547537316563     -3.19011002752259      1.46021071929009
  H   2.37172449608571     -1.55003767593888      0.73132210944961
  H   0.66805849203170     -3.68196178869722      1.81850701489027
  H   0.87873984323624     -0.52245749636349      0.01725875594094
  H   -1.67909146688737     -0.42910749846646     -0.97694740199526
  H   -0.73824751390082      0.99557724808152     -0.45805284918615
  H   -1.73105997435677     -0.08108612085946      1.95653489821723
  H   -3.24301750777181      1.73231321370868      2.20740764876568
  H   -0.98281970799026      1.35084653804935      3.21649915502730
  H   0.30684627705469      3.83199564707182      3.41471681488771
  H   1.01876700939250      1.26663891823267      1.11268961288357
  H   3.27577286109736      2.95359000681618      0.14819610823027
  H   1.07154704729939      3.72355242830459     -0.80875401401526
  H   2.19155471425053      3.13245847129129     -2.09902108862768
  H   0.82993138413671      2.10288926431550     -1.54554267973615
  H   1.30849930325219      0.97430754216586      4.04167751298494
  H   0.32639949213793      2.00887039247867      5.11373097351995
  H   3.23752837603940      2.48590435937475      4.24491158532562
  H   2.19673885299871      4.70022811336381      4.44181086934963
  H   1.41919130174004      4.25717898657085      6.00910439413294
  H   3.19841919943525      4.41863210211975      5.89652562659458
  H   2.84889877045568      0.66016541885305      5.96449047927022
  H   3.74644015130434      2.05213189085208      6.65033393677505
  H   2.00560439873368      1.84376746103755      7.01067777038312
  H   -1.97053006966290      2.32711066439479     -1.30375730310237
  H   -3.32401902628482      3.43908412109861     -1.63625336978698
  H   -4.88354856033957      1.59601196330505     -2.04572987706514
  H   -3.74917250623306      0.38096393427010     -1.44679267943211
  H   -2.16747911438740      0.89749552613239     -3.36414906108795
  H   -3.30102632793166      2.11594847120772     -3.97739040923891
  H   -5.06197601427730      0.31718301994589     -4.28659680368731
  H   -3.93428677842525     -0.89662916022680     -3.65663897152423
  H   -2.33797217467415     -0.40528046425980     -5.56484016025263
  H   -3.46588946301982      0.80958323833098     -6.19557159500636
  H   -5.23078043580526     -0.98541509984008     -6.49497115875777
  H   -4.10318612452009     -2.19967296839293     -5.86412027208035
  H   -2.50747995561313     -1.71000389702180     -7.77297438921486
  H   -3.63500872527450     -0.49486028603847     -8.40367714292936
  H   -5.40014673915455     -2.28774043426489     -8.69997806830225
  H   -4.27320154503590     -3.50193647925547     -8.06996081713478
  H   -4.30123482573750     -3.54480206160533    -10.59586049959938
  H   -3.82069200223065     -1.82096033292686    -10.64728464757179
  H   -2.68410339414474     -3.04593316943884    -10.01190850388653
  H   -3.05780920017272     -1.42164748250292      0.76316730396512
  H   0.64599777241186     -0.97880468161766      3.28985736593913
  H   1.37084133841459     -2.49682599955766      3.89797546290284
  H   -0.84311695169936     -2.15088773952013      4.97976839308347
  H   -1.66804667346412     -2.09037877144270      3.38374010256995
  H   -0.90540992136825     -3.60239785198825      3.93395696013388
  H   6.15337998872455     -1.24946818913032      2.79385074826053
  H   3.96818962199439      0.09664556252316      2.99440082884949
  H   3.36657667003331     -1.13764066835412      4.13580073312084
  H   4.79570117747198     -0.14671897476109      4.55508204837726
  H   6.29307546389397     -3.55592190097878      3.72010389886262
  H   6.04449604517883     -2.36558580901995      5.03997677402586
  H   4.67577413359260     -3.38908285222496      4.45881060402990
