115
Coordinates from ORCA-job 27
  O   4.05385127395314     -0.82866907560355     -2.41613377840841
  C   4.01965269795385     -0.20544495110979     -1.35423046332333
  C   3.68125202497344      1.28345688983894     -1.34885628548746
  C   4.91875491423534      2.14980283526365     -1.66869616872016
  C   4.60465414725396      3.48895565190644     -0.98780865660719
  C   3.92998989613401      3.05303993046044      0.31826825548604
  N   3.16545726603036      1.85410018355022     -0.08117630235926
  C   1.91996718356954      1.48150843917521      0.34748627187834
  O   1.40693718618050      0.41534770666981     -0.03866283397057
  N   4.34011578897105     -0.74864311771644     -0.14202744501363
  C   4.71889808608987     -2.14386737986370      0.00579851598397
  C   3.64528516722519     -2.93971480094530      0.78464040874585
  N   2.47623330179279     -2.26820357455862      1.01567334233061
  C   1.39765804351091     -2.90884162833903      1.76983973706937
  C   0.13523630336730     -2.09368214029871      1.47602348388732
  N   -0.47671976482941     -2.31931702991687      0.29318110210092
  C   -1.52963181583958     -1.43032059801116     -0.17289748792158
  C   -2.90951470762132     -1.71731614240934      0.48080211997055
  C   -3.82026121711171     -0.45188226580797      0.46589372395040
  C   -3.54267231915267      0.65640836922719      1.49499741240602
  N   -2.41635077689129      0.52800980452692      2.25100520755676
  C   -2.00742068540392      1.54456517380254      3.20784366840034
  C   -0.78525845666784      2.36203965011279      2.74117794188297
  N   0.01150468749098      1.76894690159304      1.80165585490093
  C   1.13122415089156      2.47059280521312      1.21277767833822
  C   0.63306724279970      3.63220608520817      0.31787419276510
  O   -0.55317134776546      3.48223886680400      3.20263324434376
  C   -1.73689510908317      0.94291458311375      4.60039115217845
  C   -2.92217733230756      0.15877641627822      5.19306774794581
  C   -2.53312512225253     -0.42803553468405      6.55769052881561
  C   -4.19750004002542      1.00962472869604      5.28608386615617
  O   -4.33113029382619      1.60408051246261      1.59723614255439
  C   -3.94162284146257      0.05205366922122     -0.98733070400315
  C   -3.90732720953076      1.52794899322402     -1.34172506585499
  C   -3.21100397802059      1.78285457910341     -2.68490441264029
  C   -1.68616778283496      1.67063614732162     -2.55845841054324
  C   -0.92377242346751      1.73830166154610     -3.88361864545557
  C   0.59799127443659      1.66637072895187     -3.70671757524752
  C   1.38189217611337      1.61074158085847     -5.02361518342424
  C   2.90083710071743      1.58241824627055     -4.82647793174794
  C   3.71815933379542      1.47835652236018     -6.11893382785163
  C   5.22765700465728      1.44957917218971     -5.85809938427362
  O   -4.05825999815889     -0.79664387584647     -1.87626102019114
  O   -3.54004300890436     -2.82324819411230     -0.12638857734080
  O   -0.25267124503307     -1.20453521089643      2.25956680702305
  C   1.69031487382039     -2.97802715975254      3.27636426148622
  C   0.63792901808495     -3.77294001440761      4.05171497162078
  O   3.82614548175710     -4.09558265635433      1.17508165883936
  C   6.14835073245986     -2.32232757035043      0.59960530737507
  C   7.11091159789973     -1.26518965805588      0.03599819965538
  C   6.68569999699949     -3.73566756921663      0.32721045529383
  H   2.90041125211004      1.40702143067115     -2.12489189582320
  H   5.08500889007102      2.22045390537061     -2.75920490851194
  H   5.82550245814225      1.69175098683124     -1.22017583681594
  H   5.49898456176822      4.11884323382700     -0.81726576777388
  H   3.88639137788316      4.07193735636124     -1.60219649525694
  H   4.68708173472432      2.77842677745823      1.08704339181643
  H   3.27887849631303      3.82983077967945      0.75574577604072
  H   4.27069147279221     -0.15081662999872      0.68496077101502
  H   4.72050428642193     -2.54089326939706     -1.03422872135711
  H   2.30951955502887     -1.34283769034807      0.59352944019027
  H   1.28455293729860     -3.94815788574612      1.38367676928612
  H   -0.13326451292059     -3.06639468641725     -0.31150688605714
  H   -1.62513224850101     -1.54828863483297     -1.26785021464205
  H   -1.19932055775465     -0.38773021867129      0.01751767019963
  H   -2.74061536908218     -1.99688825161210      1.54236273492716
  H   -4.83994431847423     -0.81664554091160      0.72250925634736
  H   -1.78485455632671     -0.28943559926902      2.16821988920365
  H   -2.83468803554850      2.27880330496740      3.26173292758492
  H   -0.10725757198532      0.78081913538701      1.54569723770942
  H   1.76771758504916      2.89163521369076      2.02298054379528
  H   0.03496237492470      4.31871996160031      0.94556143790105
  H   1.46202805383699      4.20305553200950     -0.14368533648731
  H   -0.00521256045747      3.22390332622359     -0.48963353828504
  H   -1.45736003943536      1.78138424538154      5.27383528819573
  H   -0.85106466108234      0.27435071567261      4.53159905679111
  H   -3.13082738505585     -0.69177438371392      4.50438291897117
  H   -1.62562282629008     -1.06267630945406      6.48373378124174
  H   -2.31790967036533      0.37995287707993      7.28971639224462
  H   -3.34962669329785     -1.05076778894739      6.97758138387386
  H   -4.54555855346244      1.35180752957454      4.29052486297351
  H   -5.02484520906053      0.43247737921641      5.74790228033843
  H   -4.02656127925146      1.91019638251110      5.91499504689330
  H   -3.46439100260730      2.12024343640492     -0.51936869662770
  H   -4.97389050266281      1.84731889201862     -1.36977832831652
  H   -3.48516252346419      2.79035197738513     -3.06249958569726
  H   -3.58560223349851      1.04661872934360     -3.42652889853571
  H   -1.42514448044467      0.71720566318338     -2.04926572051049
  H   -1.32014426497534      2.47121702720598     -1.87645793193965
  H   -1.19287279946569      2.67242265361783     -4.42709447668121
  H   -1.25877129817654      0.90296545154544     -4.53910047381597
  H   0.85199325307630      0.77633990882395     -3.08755521383685
  H   0.93542409972545      2.54744321344797     -3.11165866195795
  H   1.10118281579400      2.48080804048041     -5.66024970121395
  H   1.06854843517227      0.70748445914833     -5.59441475750440
  H   3.17319443908998      0.72776142708116     -4.16771757342677
  H   3.20941660440979      2.50484941095008     -4.27898744817867
  H   3.46385300094479      2.32530256918195     -6.79545645567548
  H   3.41628349937376      0.55609337761588     -6.66363607178280
  H   5.81073956687002      1.33608105352193     -6.79463859673475
  H   5.56836447150999      2.38778806226288     -5.36888818838375
  H   5.49687961368250      0.60808285876713     -5.18581194573872
  H   -3.85499709909523     -2.46173368872015     -0.99083678302294
  H   1.75254552821145     -1.93784378487278      3.65739231795830
  H   2.68796732549808     -3.44624607638715      3.38852250801510
  H   0.89824677899723     -3.83090137679586      5.12727193821737
  H   -0.36289588813357     -3.30151376384334      3.97773632215223
  H   0.55755680669719     -4.81375864140090      3.67369744826752
  H   6.07487768616821     -2.18180567271696      1.70310863013462
  H   6.82441942154112     -0.23247947086225      0.31756398595023
  H   8.13807846115604     -1.44333168552265      0.41318000175198
  H   7.14420026223469     -1.31383793354738     -1.07297016187745
  H   5.99615934414697     -4.50240477836769      0.72254839526575
  H   6.79858349290356     -3.89787276153870     -0.76632853745099
  H   7.68379772033323     -3.86800844829800      0.79248030411103
