115
Coordinates from ORCA-job 32
  O   1.37222552323604     -0.71169521919968      0.52856813606562
  C   2.06757211661827     -0.94994781167978      1.54630010262386
  C   1.43770723227624     -0.97015826271309      2.95228034817469
  C   -0.06121342037378     -1.30100342567510      2.93141843483302
  C   -0.73278836842171      0.06608729004298      2.71452160043107
  C   0.15017210440949      1.03304291191184      3.51653296629642
  N   1.48734517333715      0.42045394653779      3.45408473469621
  C   2.69064759792353      0.94648774498306      3.85317671715628
  O   3.68459889324681      0.23503760806214      4.02890536982904
  N   3.39574073804839     -1.15884524553552      1.50244631617915
  C   4.22834449967229     -0.82505177181791      0.33483588976213
  C   4.20213389930993     -1.90387056252333     -0.76884090844216
  N   2.98326384885120     -2.47976432007495     -0.98185050031627
  C   2.75173077447137     -3.38769002263608     -2.10781712177536
  C   2.37124244697246     -2.52537657184219     -3.33684073001961
  N   3.38730765431835     -1.73120279984030     -3.78306523390370
  C   3.13151954945850     -0.57118261262922     -4.62073031758086
  C   3.23033943036472      0.73953909423454     -3.82965421127057
  C   2.24142591848296      0.78465498738491     -2.64112306302892
  C   2.51490058229955      2.02120322365626     -1.77475293723016
  N   1.79268098858417      2.07175389474825     -0.61225364439815
  C   1.93230229414358      3.19907254512457      0.29926969746506
  C   2.65738200521129      2.67742384067289      1.55753940539921
  N   2.24367107151651      3.11655773987558      2.78504320840671
  C   2.73895248340083      2.49116656840516      4.01884552841580
  C   4.14161011408288      2.95462711468204      4.41085026415198
  O   3.55558569396866      1.84020726460882      1.44901886575898
  C   0.59529314765041      3.95704427716211      0.48626836887389
  C   0.69458516427290      5.49688663208822      0.45495463884346
  C   -0.70901213305490      6.11874126130484      0.44921237055096
  C   1.54903071345284      6.08452323577902      1.58784958455139
  O   3.27652443633964      2.93063049251971     -2.12867641198487
  C   0.76706474255986      0.87812612790422     -3.10163590709102
  C   -0.21580057293468     -0.02742478831164     -2.39653458188730
  C   -1.68179583574984      0.36524457421044     -2.55713220711420
  C   -2.62672865089262     -0.59508513606154     -1.82740512090338
  C   -4.10785040007368     -0.22140457629396     -1.94930456815808
  C   -5.04867841969145     -1.17554834078540     -1.20474802906503
  C   -6.53150118918464     -0.80482469266756     -1.32245743124336
  C   -7.47059179950678     -1.75807626211346     -0.57440950828992
  C   -8.95491047733931     -1.38879454215429     -0.69233769835724
  C   -9.88462545892789     -2.34660711873398      0.05891506389279
  O   0.44908225446259      1.64730591809064     -3.99770482671168
  O   4.56954431071997      0.85597200591268     -3.37526488634013
  O   1.22545426187577     -2.50999545592144     -3.80231311774510
  C   1.67445820828612     -4.41833862960083     -1.76995025831532
  C   2.04151543385917     -5.29808246708999     -0.57315208828649
  O   5.19161935279446     -2.16965012792567     -1.46554697387999
  C   5.64001780687730     -0.41371112713213      0.80867406828274
  C   6.48860449217688     -1.60697044017373      1.27491187136003
  C   6.34182908734931      0.44105433276485     -0.25651584949714
  H   2.02445309223697     -1.63090998152776      3.62167036572673
  H   -0.35400464673899     -1.73473713247368      3.90934140667461
  H   -0.31070776495197     -2.03008439788717      2.13825114438465
  H   -0.69364231734073      0.32408588951469      1.63831761232419
  H   -1.78997599173724      0.09401976036737      3.04216849881693
  H   0.15158565249756      2.05169312851449      3.08705895894483
  H   -0.18468506399241      1.10723256110390      4.57661720419162
  H   3.86833081011950     -1.13808631436531      2.41797436692449
  H   3.76553026027720      0.07610575833571     -0.12375365930792
  H   2.16210299009172     -2.02229782174322     -0.55057874878447
  H   3.72690390263708     -3.88044951358923     -2.30695230313620
  H   4.27863438484579     -1.76338264811920     -3.26412516203295
  H   2.12137569454764     -0.69166023511436     -5.05652915578485
  H   3.87075132097883     -0.52794280396903     -5.44658058720436
  H   2.95322393152501      1.57590061264702     -4.51253561588488
  H   2.36620699080063     -0.11414841270349     -2.00408416810164
  H   1.41211430952579      1.18361646437331     -0.25091421902252
  H   2.65916412496804      3.86808232898916     -0.21721828526216
  H   1.56164533254161      3.87206324881975      2.84786525866288
  H   2.01399289663884      2.77044639348406      4.81452586493705
  H   4.15269537910189      4.05118909047803      4.56514476560986
  H   4.46529916150939      2.45345041715454      5.34258783758633
  H   4.85783238020909      2.68726918009097      3.61243067772847
  H   0.06813682577089      3.62530172886602      1.41147843919476
  H   -0.06221415890155      3.64105190604292     -0.34816272052935
  H   1.19129652394872      5.75848687917912     -0.50733829109579
  H   -1.31550705183986      5.74378999877296     -0.40005235020643
  H   -1.25567573238711      5.87401901295008      1.38581237075439
  H   -0.66136120419931      7.22385288732418      0.37050328077203
  H   2.57797317097343      5.67177826593145      1.60554564368376
  H   1.63842934075696      7.18502458599267      1.48596389100002
  H   1.08184995887600      5.89774472018526      2.58227399577158
  H   0.06899644857407     -0.13350832131376     -1.32849394285102
  H   -0.01811934315429     -1.03872285890158     -2.83087586647227
  H   -1.93256661532303      0.41019459969593     -3.63777884496149
  H   -1.83014600401060      1.40103072383657     -2.17674534896732
  H   -2.34629851958554     -0.63811029822123     -0.74907004328891
  H   -2.47102228658450     -1.62768783260210     -2.21390377983126
  H   -4.39063469524377     -0.18829060580294     -3.02582935008308
  H   -4.25892639985477      0.81567449611720     -1.57077438037294
  H   -4.76212405605173     -1.20915837815351     -0.12819369027629
  H   -4.89675378365497     -2.21174431178595     -1.58423227993884
  H   -6.81804785412531     -0.77437173137802     -2.39841168151406
  H   -6.68285186191873      0.23272087307412     -0.94555669574291
  H   -7.18367182794148     -1.78871847851359      0.50209839647016
  H   -7.31861400948125     -2.79549147524711     -0.95143994457766
  H   -9.23786869687004     -1.35900141327861     -1.76860001401863
  H   -9.10303276617475     -0.35102685038100     -0.31714449904391
  H   -10.94943389349888     -2.05414178199155     -0.04512600728524
  H   -9.78481283700493     -3.38555466235501     -0.32051188215215
  H   -9.64871516768782     -2.36959037687175      1.14400661217325
  H   4.60543758700788      1.74532184109080     -2.95632911613346
  H   1.49673862083600     -5.03323753950807     -2.67585805602515
  H   0.71796948151062     -3.88084563689710     -1.59431160515745
  H   1.23047640412053     -6.01547062436170     -0.33611484586526
  H   2.96389661143845     -5.88360954089956     -0.76935675696222
  H   2.23075154418734     -4.68482154663150      0.33159294661831
  H   5.44629657146324      0.24631375867825      1.68114110983180
  H   5.96112001129264     -2.22049473871742      2.03642274068707
  H   6.74298321755220     -2.26464270096317      0.42179568635471
  H   7.43082041254680     -1.25137234663162      1.73859834734114
  H   5.74101853356463      1.34594675917757     -0.47798489642106
  H   7.33526403536866      0.77178617417692      0.10939271925893
  H   6.47873731468245     -0.12476303359960     -1.19663676729290
