115
Coordinates from ORCA-job 35
  O   4.06134728342031     -2.29446983034626      4.19098392405510
  C   4.02083280324916     -1.67231934505049      3.13011218746872
  C   5.18730446155288     -0.74066621377737      2.66012840041628
  C   6.17771701020034     -0.49291132616886      3.79824788577301
  C   5.50603660767685      0.65448826594875      4.57179714464333
  C   4.92244375143140      1.55428318379252      3.46859865055946
  N   4.70450695867927      0.62563767106799      2.33711460801128
  C   4.11067577943793      0.93785405595831      1.16708634569831
  O   3.85679724058614      0.06714173939170      0.29748433411870
  N   2.99468453812664     -1.68514095425124      2.24262194073069
  C   1.72338027225928     -2.37034852464885      2.42767163283488
  C   1.29443872845835     -2.86606586522004      1.03528536971652
  N   1.06183615139267     -1.83169099580432      0.13696539739019
  C   0.53758890554124     -2.11241250975134     -1.19030514210301
  C   1.24775743443948     -1.34952373041478     -2.31641815453037
  N   2.13916081126667     -0.35329155066533     -1.96450587709170
  C   2.81023748734784      0.39302822238115     -3.03133215591150
  C   2.15841333821757      1.72704053540162     -3.44745570374323
  C   0.60604972140613      1.67526479268639     -3.44252776968217
  C   0.08725638571628      2.39426524699995     -2.18212716050892
  N   0.18382791175095      1.64073902743577     -1.05027079543762
  C   0.02840006696999      2.18230496163557      0.29037353185776
  C   1.38740805479548      2.12447288261137      1.02468123854790
  N   2.46531793926238      2.51057103747480      0.28589773253433
  C   3.78561110405687      2.41601725339324      0.88430674593432
  C   4.84908851198463      3.01672582791006     -0.04208378316872
  O   1.49357969904709      1.75718808283739      2.20314555853984
  C   -1.07968314599898      1.47864950384598      1.08012161480095
  C   -2.45734937642747      1.49736361940536      0.39795419106602
  C   -2.95772025893464      2.91987264548238      0.10794802715475
  C   -3.46730955556746      0.70387488377264      1.23653184554011
  O   -0.32105208777369      3.55833059817482     -2.20820935076596
  C   -0.04060900157760      2.35316823294958     -4.65967637825966
  C   -1.45914162420868      1.89476388067880     -4.98143893448521
  C   -2.35777040768666      1.59375793611627     -3.77206186945053
  C   -3.63699546215846      0.80517231424865     -4.07233906342286
  C   -4.35303433768252      0.42270862260705     -2.77141519817864
  C   -5.55999574315319     -0.50907210669548     -2.92392702229319
  C   -6.12902304448548     -0.98827045803055     -1.57680033260271
  C   -5.19334027058797     -1.92851403721231     -0.80476411175796
  C   -5.70545295560497     -2.34319622935398      0.57902189742336
  C   -4.72113989988863     -3.24183801141649      1.33375168721097
  O   0.57573838186358      3.15541995085723     -5.34267967479130
  O   2.65714898564175      2.77783729060160     -2.59353159151789
  O   0.93712143320190     -1.55088842251180     -3.49461448523825
  C   -0.99889354577067     -1.88113174362503     -1.24823554158844
  C   -1.71008191623634     -2.46049402138579     -2.47136656352601
  O   1.21887312321931     -4.04805301771155      0.72311621017197
  C   0.64894017344429     -1.46222179720877      3.08875271483841
  C   -0.71845020113627     -2.15761705635775      3.10653706469377
  C   1.07900871778271     -1.00226471433355      4.48609394585448
  H   5.63919078882305     -1.17926448170629      1.74637305271447
  H   7.16320160908929     -0.18586886384826      3.39177843405026
  H   6.29883763302819     -1.40536047289220      4.41028284427901
  H   4.69002056081496      0.23804773522761      5.19592331407726
  H   6.19683975672116      1.20642768214113      5.23754338117708
  H   3.96244477865105      2.02854303744441      3.75537156020954
  H   5.63841649335659      2.35199090408024      3.17470957995413
  H   3.15341666542923     -1.17279499793775      1.35687492036395
  H   1.89077650077257     -3.26910828234624      3.05433600784851
  H   0.87559957498168     -0.91139410765694      0.54877789069182
  H   0.73095664172344     -3.19380812011854     -1.35604059431280
  H   2.60659648529138     -0.34637770719713     -1.03859121100320
  H   2.82355925543694     -0.26000014643781     -3.92677380955781
  H   3.85327794223689      0.59491537125928     -2.71943263084753
  H   2.48368467093513      1.95143140618524     -4.48650764128861
  H   0.28127187309081      0.61561114159124     -3.43884339012532
  H   0.72376999215833      0.77163267992322     -1.16621278856938
  H   -0.22813392099800      3.25462691238741      0.14772071461376
  H   2.40169012581991      2.64617979049997     -0.74111107702036
  H   3.76337778632629      2.97141737970393      1.84194513070377
  H   4.63207481144095      4.08585978373674     -0.23348656901503
  H   5.85270708000010      2.93946824810347      0.41974861862365
  H   4.86297348173818      2.48668067879994     -1.01358595868780
  H   -1.13267015425484      1.94207555811035      2.08739773607708
  H   -0.77956392188276      0.42320169270145      1.26146127857090
  H   -2.34706742312457      0.97789875381174     -0.58039548247985
  H   -2.29287588087164      3.46010407917072     -0.59580550132118
  H   -3.96937927683101      2.89206255028734     -0.34639247344570
  H   -3.03029000314698      3.51480652638807      1.04424642875386
  H   -3.11981595417680     -0.33377042441067      1.41975864700972
  H   -3.62626310725980      1.18212861032213      2.22662721742602
  H   -4.45146754523428      0.64624094414398      0.72972832586282
  H   -1.31857222619973      0.95429332762881     -5.56744335391668
  H   -1.90899837973436      2.63299788593034     -5.67508702826378
  H   -2.60397929264220      2.54196318244532     -3.25136343352699
  H   -1.78781817358506      0.99259209877325     -3.03268110859609
  H   -3.37409832525616     -0.12160767959750     -4.63123229140641
  H   -4.31394978688020      1.38563357125624     -4.73811816758852
  H   -4.66521389825177      1.34624597389908     -2.23368663428822
  H   -3.60410608989568     -0.06050525224428     -2.10701703576079
  H   -5.26618019910716     -1.39481960075907     -3.53247443697860
  H   -6.35554871076182      0.00700666448329     -3.50476604553289
  H   -7.10128744602236     -1.50149521736299     -1.74438291974409
  H   -6.36248207943330     -0.10150088037677     -0.94335346463848
  H   -4.19999679246717     -1.44559069095889     -0.67694712049379
  H   -5.00582811098998     -2.84014182333206     -1.41669214546241
  H   -6.68585351395410     -2.85946023663269      0.47313814212958
  H   -5.91183010161915     -1.42872260402147      1.17922119959906
  H   -5.10392200606943     -3.52884720463274      2.33404886275995
  H   -4.51417781601049     -4.17700761416281      0.77225550551010
  H   -3.74697444935965     -2.72959098968381      1.48508493649365
  H   2.25931030148638      3.61319062813387     -2.91547451121351
  H   -1.20177844571598     -0.78952277907177     -1.16425046819800
  H   -1.40970197060280     -2.34231717446015     -0.32514073021907
  H   -2.80456957533855     -2.32211474568062     -2.37833220209200
  H   -1.36543085747028     -1.98305587156314     -3.40666779729544
  H   -1.51320362879100     -3.54817754035303     -2.56370475488956
  H   0.57515682804223     -0.53544130698865      2.47492672800547
  H   -1.06988894052557     -2.41905065249411      2.08679016034755
  H   -0.68180573773323     -3.09845828924807      3.69468347330772
  H   -1.48541251748095     -1.50141731535120      3.56463041510659
  H   2.00670600445907     -0.40150473488244      4.43788226876027
  H   0.29334183487876     -0.36191106548374      4.93554304600682
  H   1.26342984439861     -1.86364572840096      5.15945978921601
