115
Coordinates from ORCA-job 36
  O   3.05614496492233     -0.08977540080268      0.77009694117613
  C   3.93195294658112     -0.70063714309764      1.38932294237348
  C   4.17074130039518     -0.48805504600435      2.90075657415052
  C   3.32492934555517     -1.47939911898645      3.73424191884311
  C   1.95988832116140     -0.77545917040307      3.80716294018521
  C   2.33855061599191      0.70255626868880      3.99203350147582
  N   3.63941518270380      0.81101528372286      3.29718875389911
  C   4.22807244849809      1.92167699227064      2.76600576383382
  O   5.26595915559292      1.85374405083440      2.09772745439631
  N   4.66556581204470     -1.70649316346151      0.82794038906950
  C   4.50645964656062     -2.09606945992627     -0.56950853244890
  C   3.26494795833606     -2.98186466770090     -0.83979782598704
  N   2.48141148481049     -3.24957001677585      0.25210803850503
  C   1.13248739741359     -3.77566969021569      0.15055397746882
  C   0.04725146490418     -2.67603644338551      0.26099984216067
  N   0.50766807262120     -1.39805826096567      0.35896062568790
  C   -0.35463151326329     -0.25092063985383      0.15641402775271
  C   -0.59197679192857     -0.01646497952170     -1.34573107511842
  C   -1.28720346173960      1.33793922495652     -1.67392202946240
  C   -0.28461773561702      2.50295282187540     -1.55253797114305
  N   -0.02588772683531      2.92817071286085     -0.28261548591130
  C   1.11949995196337      3.77092328421609      0.00941774022567
  C   1.59034288208917      3.37726741992053      1.41685559054360
  N   2.89672093118886      3.63320547806845      1.69656250354570
  C   3.52510494134040      3.28188753443900      2.97154889438190
  C   4.53609522582576      4.34857570654624      3.39123647585015
  O   0.79206618894193      2.90680117312516      2.24074257394744
  C   0.75781457193318      5.27364996954108     -0.08797697721540
  C   1.91617294133610      6.27685107491617      0.06602138212762
  C   3.02015979060940      6.05953703160471     -0.98125096966001
  C   1.37234668167180      7.71191060444719     -0.00765827967618
  O   0.27707012751845      2.98837740894675     -2.53747690026885
  C   -1.76742769031251      1.32004166303387     -3.13458131628606
  C   -2.79506860504539      2.35790746728212     -3.54268643027709
  C   -3.48310358341784      2.09043672062393     -4.88561032485463
  C   -4.66735998171861      1.10745750595919     -4.85424208619969
  C   -4.36004674446101     -0.33956481642390     -4.41640168871680
  C   -4.39935126252455     -0.59511208332033     -2.90318733258511
  C   -4.12013217676917     -2.05279570195629     -2.52300780185254
  C   -4.21491161039383     -2.33805045726922     -1.02013873261897
  C   -4.06984512897260     -3.82271472533248     -0.66516363538250
  C   -4.17020247078202     -4.09581181732936      0.83762788486237
  O   -1.26689876845775      0.53858571308570     -3.93707395186868
  O   0.65722929720016     -0.10182657435231     -1.99987072198647
  O   -1.14971534632075     -2.97780515966094      0.26645411644355
  C   0.86860615449410     -4.90944152653771      1.15237830424098
  C   1.76194752406686     -6.12957578089505      0.92885192278116
  O   3.01054105795510     -3.36170070984630     -1.97925555545003
  C   5.78297666605906     -2.74932404551049     -1.13872447640534
  C   6.94906356771296     -1.75421608662581     -1.18856562162944
  C   6.14860297658288     -4.04237067152867     -0.39341489427203
  H   5.25821816386869     -0.55032289034861      3.11403326676674
  H   3.77433564013532     -1.58746726180660      4.74345214034860
  H   3.28548124774085     -2.49247202436069      3.28435521798949
  H   1.41217543252149     -0.90907535100151      2.85187265118569
  H   1.31691963097610     -1.15317336272181      4.62539055529775
  H   1.59437653841060      1.39168437417193      3.54680313956692
  H   2.46091119140382      0.95171148412990      5.07051680031190
  H   5.41890740273731     -2.13455185188431      1.37076646355932
  H   4.28586596022963     -1.16708390105399     -1.13956830158434
  H   2.80539312631085     -2.90924235739847      1.15921012298011
  H   1.04784070231620     -4.16738380172367     -0.88701184653545
  H   1.50258454220313     -1.20317060563074      0.18702337013444
  H   0.15486096603685      0.61479253056123      0.61930548247668
  H   -1.32421522613319     -0.42238068768494      0.66501740823947
  H   -1.27952031647634     -0.82256518988486     -1.69869132313009
  H   -2.15194578851547      1.50402672366353     -0.99409181746938
  H   -0.47366386083276      2.51881015594716      0.54443334234743
  H   1.90124465693060      3.53866958422227     -0.74417141545624
  H   3.52943273028002      3.83210532719555      0.91685328138420
  H   2.70152288835812      3.20716708742876      3.70512517496836
  H   4.05473242851525      5.34456779595843      3.43999426393861
  H   4.95908041134435      4.10924382698587      4.38693170597374
  H   5.37618457012673      4.37512811159886      2.66900887938183
  H   -0.02759260104385      5.48490654427854      0.66931804330204
  H   0.29103050696690      5.40813949463720     -1.08733743289437
  H   2.36419422547082      6.13739728323103      1.07573157005354
  H   3.50970877504834      5.06678092204976     -0.89560403150256
  H   2.60817815959134      6.12351451092878     -2.01044239652922
  H   3.81776343311094      6.82407996025198     -0.88531376378774
  H   0.59338134462366      7.89051404967075      0.76184452007218
  H   2.17897007023297      8.45776498456061      0.14557316526526
  H   0.91475702572684      7.91081074105733     -1.00023706390049
  H   -2.20067599874193      3.29993174314877     -3.58962367183468
  H   -3.52449054018660      2.50855393160408     -2.71737603100852
  H   -2.71157636014131      1.71782016101360     -5.59225165232053
  H   -3.84357348527417      3.05784104212074     -5.29407824253666
  H   -5.09646481214294      1.08479976254294     -5.87898526257993
  H   -5.47398018693209      1.52130824411919     -4.20549387999743
  H   -3.36964858971616     -0.64485812973448     -4.81784729694168
  H   -5.10334330748388     -1.01991735051298     -4.88742847592944
  H   -5.39744305588762     -0.29455903851682     -2.50902828990590
  H   -3.67330229232031      0.05707307741689     -2.36980526585424
  H   -3.10994300897904     -2.34232009448431     -2.89163099561666
  H   -4.83609693531047     -2.70929980668339     -3.06930637366997
  H   -5.19006758304267     -1.95818317766129     -0.63521778127479
  H   -3.42303008922620     -1.77044420610759     -0.48273921780258
  H   -3.08387626172098     -4.17961208997599     -1.03138939343291
  H   -4.84452912387419     -4.40652286696197     -1.21335715886206
  H   -4.08867283128920     -5.17945384441872      1.06282031947890
  H   -3.34962076693102     -3.57876547859509      1.37402789098876
  H   -5.13760572492501     -3.73986646258820      1.25335213302822
  H   0.43450142130556     -0.04177680911601     -2.95536844929052
  H   -0.20461061629964     -5.17154077260806      1.06371546594918
  H   1.00161361331604     -4.51063448002155      2.18460038839390
  H   1.55986329041779     -6.92198789416462      1.67712371254165
  H   1.59850339564064     -6.56342897288037     -0.07905029361523
  H   2.83650451233683     -5.86099297287451      0.99969361184980
  H   5.49780685686874     -3.02524589564724     -2.17552866999239
  H   6.68188005440706     -0.85066529487461     -1.77257827032630
  H   7.24386137125976     -1.41452840839687     -0.17294111961751
  H   7.84211628784725     -2.21397948550785     -1.65776273531956
  H   5.30038760628375     -4.75642956907835     -0.37454137468882
  H   7.00363501505740     -4.54856867979770     -0.88421748261689
  H   6.46005716944589     -3.85191014106260      0.65814222739913
