115
Coordinates from ORCA-job 37
  O   8.05073001265221      1.03568159638827     -0.03828257067823
  C   7.34974891724402      0.73266489397957      0.92057554969987
  C   7.09334317676427      1.72526177691167      2.07886515426517
  C   8.15461565875666      1.60255121560527      3.19354520214438
  C   7.53820550692473      0.58675458468104      4.17019956492659
  C   6.04402269570225      0.95233197463990      4.15933721717670
  N   5.82989912499684      1.45520183247752      2.79088078068336
  C   4.66395848891980      1.68881096039327      2.11801255753361
  O   4.68977733487181      2.11969707968441      0.95644105646844
  N   6.79171082838316     -0.50491579636343      1.11033791612055
  C   6.98366387965042     -1.63538390618149      0.21742380433982
  C   5.69731351947145     -2.48493075710564      0.13581868637318
  N   4.52413919874521     -1.83818525168517      0.44378379335658
  C   3.27454420211987     -2.57911278903406      0.47940714099162
  C   2.20493571315893     -1.81698955244681     -0.30597002503823
  N   1.30947366746573     -2.59826521874777     -0.97108868846293
  C   0.03283799852911     -2.06239022030703     -1.41695990537195
  C   -0.95876883413238     -2.00028160951688     -0.24455922085166
  C   -2.09990315034992     -0.97269990144121     -0.45623091191445
  C   -1.43786082366260      0.41471626711386     -0.54849904892022
  N   -1.00643686108615      0.91092683523224      0.64617599931912
  C   0.11452649474390      1.83221084945598      0.73675836548228
  C   1.05801187138794      1.22235346921420      1.79932484850565
  N   2.31224519124818      1.72497890275042      1.80258902417035
  C   3.31171229642991      1.36439127550409      2.78958489023639
  C   3.03586333574148      2.09428405126102      4.11630579122087
  O   0.64061897073861      0.40526498948254      2.63638286700977
  C   -0.25743429319068      3.27243192462490      1.15875568810788
  C   -0.99805776358147      4.14635816018132      0.12583796492265
  C   -0.97243283291847      5.61031136916794      0.59688453906740
  C   -2.43953299219825      3.69346533895706     -0.15377226188766
  O   -1.25193069772519      0.97526753676549     -1.63211909604555
  C   -2.97510637097753     -1.18757665650210     -1.69884743027615
  C   -4.26535857780394     -0.38171911202270     -1.72336168508524
  C   -4.90646495824000     -0.28074430215710     -3.10607664302951
  C   -6.23882994091753      0.47537407737720     -3.10234680112842
  C   -6.87652045601832      0.59687799864277     -4.49118307735922
  C   -8.20868296297889      1.35528261072591     -4.49629350823732
  C   -8.84603432348633      1.47898470323542     -5.88514310905986
  C   -10.17682716401109      2.23998015953945     -5.89113873251183
  C   -10.81534175864134      2.36448228880331     -7.28050892049798
  C   -12.14383212889840      3.12691615836425     -7.27641402688235
  O   -2.65879168298345     -1.94579527685159     -2.60059575153129
  O   -1.42067631795904     -3.32671356738079     -0.00813841687599
  O   2.14085903239273     -0.58174176596201     -0.26013856651093
  C   2.78086390053739     -2.78969375086576      1.93694674626547
  C   1.67438288671666     -3.83871814695830      2.08041340676656
  O   5.74096446592340     -3.68729443183231     -0.12834045030871
  C   8.18707260853643     -2.53485290392040      0.61215881822883
  C   9.52043773489653     -1.79012154640075      0.48005374675079
  C   8.01600320914947     -3.12969323766901      2.01671553612730
  H   7.06995334189706      2.72568446914479      1.60737666054993
  H   8.28611819544984      2.58709898448191      3.68851291414550
  H   9.13892821613343      1.29464343006534      2.79261304053538
  H   7.68683865776832     -0.44545920470560      3.79140549732619
  H   7.97142330270496      0.63343054032395      5.18779579391954
  H   5.37987643465429      0.09185362093967      4.38382609188770
  H   5.83034922543542      1.74676037961465      4.90731654150798
  H   6.20440694202157     -0.64450696368587      1.93306282627177
  H   7.18667022624101     -1.20544153352838     -0.78904686569026
  H   4.45608679082765     -0.81371905338735      0.40986051800911
  H   3.48920066603778     -3.56763785803005      0.02149713545775
  H   1.39754420169564     -3.61167430282057     -0.88140229313427
  H   -0.39380191438416     -2.69208829949374     -2.21714448466139
  H   0.20372499334899     -1.05061882016109     -1.82809683828827
  H   -0.38002328280025     -1.63478261893367      0.63742556418489
  H   -2.75776041391320     -0.99204933829360      0.44306551207467
  H   -1.05800562322110      0.31775567892942      1.48833257492287
  H   0.62001470820672      1.85062146063519     -0.25202603297209
  H   2.71530774246679      2.15399155289869      0.95584485168487
  H   3.27400372483629      0.26289868000413      2.96770969626486
  H   1.99588732323005      1.86811719603497      4.42014899177268
  H   3.70106614180308      1.76541560962249      4.93533290234863
  H   3.14000344220918      3.18969422751918      3.98641622165314
  H   0.69475913908676      3.78044472089460      1.42122581554877
  H   -0.84732283151501      3.22039541820744      2.10189895713315
  H   -0.43085083135314      4.08043813769104     -0.83062947770557
  H   0.06415372071414      5.97380555792915      0.75612702074015
  H   -1.45664836593241      6.27870673137149     -0.14411288431100
  H   -1.51952561794775      5.72634354603221      1.55757129194549
  H   -2.46276787151242      2.73215172207190     -0.69776383244271
  H   -3.01653915034805      3.58984404494984      0.79008691027091
  H   -2.96282857987118      4.44056902379430     -0.78576881858859
  H   -4.06733973549821      0.62452880467241     -1.29331219371090
  H   -4.95870838939373     -0.87398312889495     -0.99927129291806
  H   -5.04254756259529     -1.30394637505230     -3.51578276138146
  H   -4.18808902922982      0.21956238665840     -3.79091436075433
  H   -6.08696674321794      1.49414197884949     -2.67774771735095
  H   -6.95275074192233     -0.03128011294616     -2.41259547908674
  H   -7.02879170953415     -0.42153230537881     -4.91563825324215
  H   -6.16147897925520      1.10199596050071     -5.17953095179537
  H   -8.05416874302466      2.37306512345299     -4.07031814017992
  H   -8.92338221115774      0.84985851162144     -3.80698740815084
  H   -9.00154841166247      0.46117744061792     -6.31051913555409
  H   -8.13044846418879      1.98286405486409     -6.57433531459187
  H   -10.02080524964089      3.25792656003643     -5.46555386096111
  H   -10.89245019111922      1.73627922381572     -5.20126897516325
  H   -10.96890086857746      1.34602401299621     -7.70318045091667
  H   -10.09724891041478      2.86642382418295     -7.96741822616177
  H   -12.58027009944179      3.20037051778420     -8.29344973368690
  H   -12.89321487944109      2.62769363069411     -6.62626678969356
  H   -12.01388145152282      4.16108400510891     -6.89290822652072
  H   -1.85299322952165     -3.34082416298644      0.86562092720742
  H   2.43342743546371     -1.81079832501270      2.33555715529181
  H   3.66688331361455     -3.09393580226177      2.53356957132152
  H   1.37358040983220     -3.94857303050513      3.14159218931067
  H   0.76368428827706     -3.58266007683721      1.50229030968912
  H   2.01970276489926     -4.83395454141047      1.72847016005496
  H   8.16076039079017     -3.37241368975951     -0.11587473958713
  H   9.63898762856287     -1.32380076496981     -0.51705812158888
  H   9.60228726757529     -0.97576451167610      1.22974853672418
  H   10.36899682066921     -2.48408468812303      0.64948963185507
  H   7.08632357664042     -3.72672173945437      2.09621026303524
  H   8.86555767379792     -3.79679601486541      2.26580736164889
  H   7.99461434522886     -2.33072868564628      2.78975641670057
