115
Coordinates from ORCA-job 38
  O   6.21955137272693      1.17763601491842      0.49127135973935
  C   5.22027729890999      1.10715487521179      1.20015877595485
  C   4.18551959835878      2.24460137016141      1.20643337621188
  C   4.55426033266486      3.37064967572552      2.20172848589842
  C   3.72243216554157      3.03709376945629      3.45096527102552
  C   2.39331455319463      2.55561844910302      2.85173103102221
  N   2.82782618287086      1.85145350186971      1.63235594638598
  C   2.09480907164830      1.02964326060036      0.82385139273452
  O   2.64001488776279      0.40684014393507     -0.10349845766816
  N   4.98755254287665      0.07398758159424      2.06974846168577
  C   5.89947456570153     -1.05646693761701      2.13757733158729
  C   5.72459049898661     -2.04720468577779      0.96403311078974
  N   4.45472749853772     -2.12824184909396      0.45670142890140
  C   4.12551736651373     -3.01954418734052     -0.65583741099986
  C   2.95380325375481     -2.36487524263333     -1.39113242613540
  N   3.20909199026589     -1.71715635606780     -2.55344023621519
  C   2.14664219380819     -0.93893943453646     -3.19039699770890
  C   1.15013819064813     -1.83416219910422     -3.96724227407428
  C   -0.23144837127081     -1.16515037201229     -4.17587070811761
  C   -1.25670541169689     -1.36848640841919     -3.04932686143048
  N   -0.76999804697517     -1.75866598609497     -1.83143082354954
  C   -1.58387804273852     -1.72886271005719     -0.62572735653967
  C   -1.24465566563447     -0.51048829708617      0.26443692353296
  N   0.07717783233959     -0.16114936153248      0.29273331360624
  C   0.57679238747813      0.98186396944579      1.03162732292959
  C   -0.03535522693710      2.30916588581472      0.53027251053629
  O   -2.10859563735052      0.08429280091175      0.91785111332792
  C   -1.43829737144752     -3.05183795912426      0.15588106083633
  C   -2.19380124255587     -3.13149685510616      1.49541635736522
  C   -3.69309217653427     -2.83761049591458      1.33763137380806
  C   -1.95056213476542     -4.50225943264005      2.14451899167769
  O   -2.44947930520262     -1.11467518223528     -3.24512974130738
  C   -0.06008508121886      0.35127449708049     -4.50272783158082
  C   -0.39423945208387      1.34987693303181     -3.40496021106285
  C   -1.84306695902071      1.88530658926748     -3.55003241101081
  C   -2.38229969014497      2.42536067530245     -2.22362079813166
  C   -3.84922079591110      2.86135209807585     -2.26630480751253
  C   -4.38118678695347      3.27248487069528     -0.88793128654086
  C   -5.86006345255194      3.67449101147347     -0.88271999782788
  C   -6.38603845635353      4.07192631155717      0.50134824880158
  C   -7.86858569476781      4.46572003203099      0.51495062228775
  C   -8.38369365137281      4.85979713698246      1.90265970576794
  O   0.34382284959449      0.69840960192075     -5.59930665145079
  O   1.66888071116135     -2.18627915780856     -5.24071869520762
  O   1.80826791517616     -2.41972800894658     -0.90449301576507
  C   3.70593957407321     -4.43800206655502     -0.21595494833407
  C   4.75816024770687     -5.21946807312519      0.57047062392325
  O   6.65577195264406     -2.75368351596221      0.58017011689006
  C   5.79223707664895     -1.76058769840597      3.51746969505692
  C   4.40793153112594     -2.38360701271403      3.76016178511396
  C   6.91123191140152     -2.79216363433445      3.71240018310809
  H   4.16421418815453      2.60117975669315      0.15752734544904
  H   4.24445080101161      4.35043292059875      1.78348236095766
  H   5.64448660674770      3.41536663709249      2.38413290344060
  H   4.20317404946626      2.21732352124845      4.02478691675454
  H   3.59011399319943      3.89627536130152      4.13618442538765
  H   1.82106304050820      1.88052299170086      3.51911694863710
  H   1.73564174815935      3.41841337012831      2.60478854722175
  H   4.10725043470033      0.05320624284210      2.58837469985437
  H   6.92589697340456     -0.65870578904515      2.00829300889875
  H   3.78805702089054     -1.37923089019359      0.67590528203431
  H   5.02713114386724     -3.08603133309792     -1.30441764742277
  H   4.18292704754172     -1.58337728726580     -2.83113216643651
  H   2.60164056863428     -0.22587118937149     -3.90344103898087
  H   1.64131057685647     -0.35110855619680     -2.39718984514484
  H   0.97591061457174     -2.75704661501134     -3.36437160193890
  H   -0.65829864575733     -1.62409903128446     -5.08896808634296
  H   0.21936260635134     -2.02910821012368     -1.70486070138752
  H   -2.63002379549440     -1.57734456509329     -0.95326167936771
  H   0.78192402789772     -0.70616531329512     -0.22508650476025
  H   0.33194914078248      0.86884014399751      2.11308379406384
  H   -1.13474747349184      2.24359293759484      0.61736932828117
  H   0.31615298367734      3.17418707050497      1.12444950980852
  H   0.23345550109607      2.47064774745674     -0.53107838679516
  H   -0.35549540840112     -3.23459466489270      0.32993082555409
  H   -1.78987303652122     -3.86619158442202     -0.51585546308183
  H   -1.77115784405183     -2.35467296301485      2.17256539918727
  H   -3.86086589022883     -1.79044979774663      1.01949902154884
  H   -4.15524669406744     -3.51549786355697      0.58767396682459
  H   -4.22830865293151     -2.98566912580054      2.29818076456727
  H   -0.86711647215673     -4.70747907192600      2.27344941535932
  H   -2.43023221139332     -4.56676917057262      3.14274666039193
  H   -2.37186702994282     -5.31785854504557      1.51807606783348
  H   0.33560746354263      2.18356468980983     -3.46370625617224
  H   -0.29170505721714      0.86699993553336     -2.41078439983435
  H   -2.49852245425296      1.05642744196205     -3.88421701633654
  H   -1.86662386870965      2.66173240608215     -4.34390426223077
  H   -1.75035052940171      3.27190271855744     -1.86941028637169
  H   -2.28131860563755      1.62700275048236     -1.45613378225719
  H   -4.46227866631937      2.02047523372080     -2.66113531927635
  H   -3.97937290370918      3.69921977547263     -2.98864522369664
  H   -3.76905642104110      4.11612347472799     -0.49287016870021
  H   -4.22312978506538      2.43011596246862     -0.17689978305926
  H   -6.46986925026801      2.83113440142451     -1.27960471680930
  H   -6.01836760630624      4.51740119021386     -1.59403053855677
  H   -5.77745739182622      4.91718007294366      0.89810763138679
  H   -6.22208960684827      3.22915373780997      1.21135750523591
  H   -8.47315730398839      3.61965034896466      0.11747424151602
  H   -8.02928263117889      5.30643969415361     -0.19713946369078
  H   -9.45719062154140      5.13835180708731      1.88096461221549
  H   -8.26932377091520      4.02532186325980      2.62658044796276
  H   -7.82154238199818      5.72677865275310      2.31018584256319
  H   2.48703070425015     -2.69439159180078     -5.08383302653931
  H   3.43066271376342     -4.99657379062207     -1.13812509693934
  H   2.76925662928944     -4.33504884447980      0.37033943875218
  H   4.39042261379869     -6.24207142322302      0.79049739846941
  H   5.71447531834604     -5.29894185196173      0.01842318531039
  H   4.98640607398877     -4.73099161563453      1.53803554854816
  H   5.94091430789947     -0.94593369396660      4.26279497906654
  H   3.57836304639914     -1.64993419956776      3.66555653758052
  H   4.20365274248006     -3.20252055463351      3.04133092723097
  H   4.34507895359062     -2.80486273624852      4.78343734678726
  H   7.91073030456379     -2.32928147527741      3.59103016089047
  H   6.85604946337279     -3.23515653347208      4.72728096161665
  H   6.83936970722535     -3.60929291666363      2.96809653260586
