115
Coordinates from ORCA-job 40
  O   5.68685310100215     -2.18004627286196      2.17417493027138
  C   5.21688118892775     -1.07649518719110      2.49334187771384
  C   6.13640074912411      0.09385943454085      2.86457912584708
  C   6.21454294150305      0.37601023928155      4.38064419526503
  C   6.51675701761941      1.88106144026410      4.44309533725633
  C   5.65592032229216      2.45729348872850      3.30827610429646
  N   5.65003153256170      1.36916118922529      2.31398782672611
  C   5.17331447327901      1.39412610548495      1.03306917051248
  O   5.29037590102320      0.41968439960867      0.28228081710753
  N   3.87643327816105     -0.83482814335066      2.57475114742899
  C   2.93260512435762     -1.84309566454572      2.09267192149091
  C   2.84194879877956     -1.75769838942128      0.54226289675728
  N   3.97376203977369     -2.13642535054850     -0.07082654323584
  C   4.28714577586907     -2.18223249123560     -1.50224554941538
  C   4.15516114400423     -0.88334819065641     -2.34672970261767
  N   2.91858051577067     -0.30221958387904     -2.33679318063487
  C   2.47191993912058      0.54986617853871     -3.42276423835585
  C   1.39678767106671      1.55491082127237     -3.03485066992754
  C   0.17526614186483      0.89217101506635     -2.29492009878186
  C   -0.04298758285402      1.69190275446442     -1.01824286534420
  N   0.43025998889767      1.13960428897306      0.12683677458088
  C   0.68356587342644      1.97713873192291      1.29277147978156
  C   2.20898822381586      2.03850467688270      1.54567333302562
  N   2.97206859031268      2.33021484869777      0.46507520304883
  C   4.40306825869358      2.64770892535877      0.56847706086098
  C   4.93486722419460      3.09645936251458     -0.79298650569177
  O   2.67907590528101      1.86802637399660      2.68796288459615
  C   -0.09893261362655      1.57910289459251      2.54985418529392
  C   -1.60272419832898      1.34872709460483      2.32142695698468
  C   -2.24659035363172      0.79583015930837      3.60124267902560
  C   -2.32366095346895      2.61414373659725      1.83144214271471
  O   -0.48917351254998      2.85287894842375     -1.09194691001227
  C   -1.09148561958245      0.85698488954598     -3.17454764048669
  C   -2.38935918202688      0.56147774279553     -2.44811017492166
  C   -3.57294664952546      0.24680014647488     -3.36101349003018
  C   -4.88384189975372      0.04425620936847     -2.59371640206796
  C   -6.08162234022214     -0.26464984049371     -3.49909501710995
  C   -7.39753995161877     -0.46278389382794     -2.73818376519415
  C   -8.59600694826065     -0.76868512408988     -3.64398880571084
  C   -9.91297875035658     -0.96606933174886     -2.88456887104350
  C   -11.11275585248825     -1.27079808450553     -3.79078729894643
  C   -12.42394701337603     -1.46615645482175     -3.02351151114361
  O   -1.03069923223857      1.03512481530377     -4.38082038549699
  O   1.99645011750299      2.60570823139758     -2.26086334021218
  O   5.06844573213556     -0.54566709139927     -3.09848816242230
  C   3.49180130569726     -3.32220465792597     -2.18593322823673
  C   3.82266872798497     -3.51216712648659     -3.66729981114101
  O   1.80397701131731     -1.35431616674357     -0.04570912728322
  C   1.55140804438423     -1.76510765961198      2.76084704884420
  C   1.65511207664533     -1.50803853931518      4.26879062497952
  C   0.74651707449072     -3.03578289477436      2.45352953425034
  H   7.12810461347634     -0.17383351242322      2.44238236840303
  H   6.97042663558021     -0.25730056643144      4.88194614974398
  H   5.22933381536496      0.16314632417934      4.84575153244482
  H   6.27710926199198      2.33484494995941      5.42435999212275
  H   7.59271568368092      2.06317647584535      4.23893538297303
  H   4.61573432133298      2.66901958036175      3.63471389838877
  H   6.08918390353772      3.38424642337391      2.88180601870291
  H   3.54054096612117      0.13769853476831      2.69622645937460
  H   3.40142810162996     -2.82186960895639      2.33350070559315
  H   4.75385564731977     -2.35835793470539      0.57628870275645
  H   5.36857214710254     -2.40753102879585     -1.55803612690589
  H   2.24964566719492     -0.69196133142819     -1.65094595045188
  H   2.05460046585013     -0.06509361579461     -4.25536607097791
  H   3.35322598369804      1.08415878837939     -3.82817620685155
  H   0.99418991786284      1.97590838069091     -3.98143569884631
  H   0.38566268953325     -0.16964852064845     -2.04041864646604
  H   0.85242607268543      0.18914270800443      0.10663633221680
  H   0.36978427962369      2.99507088148056      0.97543611739040
  H   2.56412513843051      2.32597854797468     -0.49223821128427
  H   4.50786709762430      3.46078000725896      1.31570418024203
  H   4.32904713926306      3.92695349943453     -1.20277715214107
  H   5.98472783061541      3.43489298343005     -0.69547338919988
  H   4.91099549137149      2.24602496077735     -1.50145128279242
  H   0.05521101362865      2.37585107456162      3.30817987894771
  H   0.35482590919306      0.67058616259585      2.99063248493970
  H   -1.69983471081056      0.57206397576710      1.52826544820009
  H   -1.75244722448439     -0.14080030833049      3.93380907129326
  H   -2.16792747211701      1.52806173472140      4.43340466772586
  H   -3.32343051258582      0.57665819809530      3.44995281790853
  H   -1.91406517308669      2.98125616504248      0.86891422571348
  H   -3.40646177428461      2.42112455306633      1.68488603424855
  H   -2.23094315605735      3.43208346570631      2.57884664535266
  H   -2.59602192763064      1.46217633914438     -1.82490916204690
  H   -2.20537211294090     -0.25180770636883     -1.70925132968052
  H   -3.34209263753638     -0.65840641198439     -3.96416354047383
  H   -3.68308330674248      1.06952830991345     -4.09873320192115
  H   -5.10240148427190      0.95499733490161     -1.99049615283697
  H   -4.75966320388299     -0.77933476488818     -1.85353144345374
  H   -5.86231898899248     -1.17579506132664     -4.10106745354394
  H   -6.20306498453357      0.55858458013249     -4.23926302935299
  H   -7.61475319683211      0.44845511485236     -2.13524140916519
  H   -7.27510354911084     -1.28676191642415     -1.99838167830450
  H   -8.37828447346053     -1.67974576626777     -4.24701076423887
  H   -8.71721700225233      0.05535931874638     -4.38373224469514
  H   -10.13003588626372     -0.05503808973158     -2.28081662039872
  H   -9.79182875917977     -1.79063399601920     -2.14491717119842
  H   -10.89198633095788     -2.18047945157751     -4.39348291329482
  H   -11.22983764803332     -0.44587733331729     -4.52919482175287
  H   -13.27150572210511     -1.68459002720638     -3.70474356926558
  H   -12.34814861597711     -2.30831632253507     -2.30347903081602
  H   -12.68892275915928     -0.55880204676748     -2.44050718338251
  H   1.26980604286953      3.23981266513667     -2.06183943832269
  H   2.40765679285676     -3.11904038885422     -2.05313518303508
  H   3.70444103139282     -4.25532348535083     -1.62129377230843
  H   3.27692873139664     -4.38346123895715     -4.08149085556081
  H   3.54726593158756     -2.62331560684396     -4.26928418720918
  H   4.90787541645138     -3.68222923486967     -3.82092849005611
  H   1.01404540573458     -0.91347361344546      2.29500546748920
  H   2.12781999863357     -0.53132102203992      4.48862541367059
  H   0.64547276921151     -1.50265365696374      4.72737423689594
  H   2.25106929309845     -2.29857455695357      4.77182291237743
  H   0.65380392142159     -3.19981920810082      1.36238277050420
  H   1.22910145737631     -3.92981967511074      2.90292884210843
  H   -0.27782312942534     -2.96050803268435      2.87104266130831
