115
Coordinates from ORCA-job 41
  O   3.57452004425174     -2.49602062970943      1.28989698063525
  C   3.21437414328738     -1.32226743776439      1.49855882223513
  C   4.25445871919128     -0.35715327669231      2.10368020990706
  C   4.82096674505812     -1.00524554456616      3.38291920921611
  C   3.73262943203910     -0.65312284043814      4.41206907243413
  C   3.32908352267335      0.78925586999988      4.04090740706614
  N   3.73365063382646      0.91832436703605      2.62036347687751
  C   3.93538237119873      2.09210435088839      1.97794126600115
  O   4.39095590753197      2.16703709155544      0.81534985734112
  N   1.94285359799525     -0.89078138262605      1.30853640019197
  C   0.94020084053364     -1.86878427075055      0.86997209093114
  C   1.01557556862567     -2.04825347392392     -0.66549590591566
  N   2.04738397975465     -2.84126237761383     -1.04206944947106
  C   2.47743145091949     -3.12471969454622     -2.41953425924876
  C   3.18549328447139     -1.89923139153115     -3.05254308412795
  N   2.36325927939853     -0.80731220090246     -3.20115292806056
  C   2.91755908817668      0.52144040582075     -3.36174026276057
  C   2.84998186927028      1.32153306701793     -2.04607376747331
  C   1.33862120994610      1.59980345656961     -1.62965021702527
  C   1.25766061453771      2.37648439444703     -0.32240539136652
  N   1.16509570952974      3.73096680940582     -0.40870415097664
  C   0.62482114355408      4.51020754309063      0.71151796198117
  C   1.45014648779064      4.25622333292157      1.99412499275020
  N   2.81097622483962      4.19955098165147      1.78690351836245
  C   3.61647723857210      3.40753850182004      2.70756242577418
  C   4.91966469231970      4.10806394630609      3.11267311140360
  O   0.92814863043727      4.14480557308808      3.09948726128344
  C   -0.86271885504407      4.20831997514235      0.96834880393550
  C   -1.75966215594922      4.25443733487204     -0.28002744598037
  C   -3.17789814209877      3.78187778996677      0.06912957903835
  C   -1.77456611663238      5.63479685475340     -0.95140141733656
  O   1.26708832759411      1.79162835035035      0.77906810965810
  C   0.56943719686437      2.23966491277843     -2.78040031933051
  C   -0.40549302339122      1.34687280381512     -3.51210993462886
  C   -1.67748797969879      1.17969070458576     -2.64425800327679
  C   -2.47742290538217     -0.08399664592529     -2.97096606702852
  C   -3.73269985851358     -0.23144922563922     -2.10452005621759
  C   -4.45835078113042     -1.56642596703726     -2.30357634974829
  C   -5.69779929505036     -1.72732446067169     -1.41386279334407
  C   -6.45173773754270     -3.05365478329276     -1.59624310663712
  C   -5.66743756649630     -4.30259012917952     -1.16779390772963
  C   -6.47007445067254     -5.59911419465191     -1.31276219239814
  O   0.69577385979097      3.43580189251757     -3.06026394683157
  O   3.49862711425057      0.58174348797538     -1.06053279145857
  O   4.36581665316008     -1.93448691441548     -3.38670613622392
  C   1.35604747709253     -3.69870036805247     -3.30790315307217
  C   0.72689548944646     -4.97074103750626     -2.73594269024160
  O   0.22911286435931     -1.48967768560139     -1.46127083923821
  C   -0.46765372830516     -1.60956776988436      1.44857097604248
  C   -0.41565363990851     -1.73213677453697      2.98013583173777
  C   -1.13066474252934     -0.29126627353316      1.02585405211625
  H   5.01666100596264     -0.15513657482523      1.32598264741335
  H   5.78850984128268     -0.52775304075381      3.64155508047297
  H   4.97996095322477     -2.08964627622265      3.24463341384861
  H   2.86711605185590     -1.33607704277732      4.29078281471143
  H   4.07274526198771     -0.73069097764497      5.46253884178331
  H   2.24416732150261      0.98581267723588      4.15773662999673
  H   3.87939433268426      1.52822061144712      4.65799348663327
  H   1.73810360660545      0.12697788700765      1.18837966450888
  H   1.28926824587524     -2.83168680106341      1.29726087722596
  H   2.71808677406480     -3.05056778325029     -0.27684159950213
  H   3.27973052827301     -3.88251944458933     -2.33028470730720
  H   1.43197122373974     -0.90470973323715     -2.76203923980579
  H   2.41369379529415      1.07881773170659     -4.18172571565158
  H   3.98186218537490      0.38979124036018     -3.63927612722792
  H   3.32398076280938      2.31752247874589     -2.21882099586859
  H   0.90734267954524      0.60685573203202     -1.39839503985004
  H   1.07055170597468      4.08546508336092     -1.37819871385621
  H   0.75759756250743      5.57842382897072      0.43699624056209
  H   3.10961768118522      4.11116011433905      0.80791240771130
  H   2.97318673850711      3.24602130698786      3.59265332161807
  H   4.69104750739713      5.08358838518229      3.58342343736436
  H   5.49529041649340      3.49216360587689      3.83391346228476
  H   5.55708872619290      4.27844592674723      2.22236587444968
  H   -1.22567066949940      4.92244626938523      1.73682118429370
  H   -0.92597710916262      3.20589737541605      1.43757760787263
  H   -1.34890107724326      3.52848489328090     -1.01571422430369
  H   -3.16457864651042      2.76310760464747      0.50845222453130
  H   -3.65626302624327      4.45994275519285      0.80782833698489
  H   -3.82651957621058      3.75379318347763     -0.83051290843322
  H   -0.77013207181482      5.94053229779805     -1.31034526919879
  H   -2.44661789545793      5.64297253191849     -1.83353779096729
  H   -2.13308619167764      6.41605884236583     -0.24701599887466
  H   0.04371486026678      0.34702969695391     -3.68018820291854
  H   -0.64566179854245      1.79788450176308     -4.49455217441675
  H   -2.30815833573118      2.08843299581218     -2.74785488070088
  H   -1.38856610286399      1.13357750299085     -1.57202160770154
  H   -1.81426203475312     -0.96034738477507     -2.80598384310736
  H   -2.75543258972292     -0.09047355273807     -4.04898374607571
  H   -4.43291821356408      0.61116848925618     -2.30585182441171
  H   -3.44436297638006     -0.13239666332458     -1.03384435819415
  H   -3.73925394586507     -2.39205323648914     -2.10738979895086
  H   -4.75560086015168     -1.67441357113163     -3.37197697820613
  H   -6.39413240228647     -0.88255599185549     -1.61295306390063
  H   -5.39581148384888     -1.62083004173847     -0.34648440578648
  H   -6.75575961987384     -3.16083696562238     -2.66305508364267
  H   -7.40150805024328     -3.01308642605076     -1.01751205294296
  H   -5.34067919552046     -4.17894687588091     -0.11027671858039
  H   -4.73126513776454     -4.38131775093306     -1.76270456249709
  H   -5.88339959470849     -6.48507784671931     -0.99477241546666
  H   -7.39531264277964     -5.57220288640061     -0.69896650986856
  H   -6.78022572610613     -5.76463643102572     -2.36622812689949
  H   3.88601225229564      1.19318589556572     -0.36737039950718
  H   1.80951664315366     -3.90363958566940     -4.30079027658835
  H   0.57540302426563     -2.92900677439623     -3.46613768362933
  H   -0.05082909487200     -5.37169080046955     -3.41649419894015
  H   1.48570316500481     -5.76652895842403     -2.58291848184866
  H   0.24597500352612     -4.77495358260604     -1.75635470981503
  H   -1.09071412643859     -2.44336656520712      1.05366361402945
  H   0.00379537974140     -2.70730713556869      3.30344927857878
  H   0.21934605274824     -0.93067057053048      3.41167974846290
  H   -1.42782148736300     -1.63051697421473      3.42043110420912
  H   -1.18783215583941     -0.22286430411354     -0.07470485411268
  H   -2.15971926735431     -0.23641737229305      1.43627481248441
  H   -0.56815861689270      0.58686742933390      1.39820232775377
