115
Coordinates from ORCA-job 46
  O   4.41777540075266     -2.61248849206843     -1.30672788950369
  C   4.11448031918423     -1.47009725748192     -0.96548045694093
  C   3.66330370951321     -0.44980960311008     -2.03932772512308
  C   4.75038013879526     -0.28884507523120     -3.11240836398278
  C   5.66535112260678      0.77547625225562     -2.48317581874429
  C   4.68113223765079      1.75393882209559     -1.81181351632711
  N   3.49386973724769      0.91951746156596     -1.53493428874999
  C   2.32946778742632      1.30548381928750     -0.94808776290769
  O   1.37874942474425      0.52376674598088     -0.79183227208883
  N   4.17066323639089     -1.01114716638373      0.31809683059381
  C   4.45403115254080     -1.92530634821369      1.41614247335133
  C   3.20190022843808     -2.72658398192358      1.83097442539667
  N   2.05164395485754     -1.97754851958223      1.96554986373814
  C   0.82375497721881     -2.62186936121439      2.40818335545809
  C   -0.42584110192622     -2.09298507816242      1.69769648039502
  N   -0.25837858932076     -0.99362634944582      0.89219635452562
  C   -1.41435727974798     -0.43568663261188      0.20682672903365
  C   -2.45715844256593      0.14781879087339      1.20763851437532
  C   -2.47298221489466      1.69854590855186      1.25165305307484
  C   -1.20056661106283      2.34279857406942      1.80742123936885
  N   -0.34040378951362      1.53055960625428      2.49299093521499
  C   0.94778084364567      2.03146286620065      2.97747406535796
  C   1.92321659720951      1.98126537161165      1.78289874864917
  N   1.64394865634119      2.87512416148434      0.81067151391741
  C   2.22037752287130      2.78632435932158     -0.52530653899557
  C   1.32147277644402      3.53471253810301     -1.51844228935016
  O   2.82743136815295      1.12589262802499      1.69875596011734
  C   1.44298051518290      1.21496305819327      4.16870061677728
  C   2.71788663760260      1.75301129401944      4.84611522797910
  C   2.49105253589536      3.11894387255747      5.51051635773843
  C   3.24130896063256      0.72058435858783      5.85496213604159
  O   -0.99123132146118      3.55791138854587      1.67086924217855
  C   -2.78604517757193      2.25811045154847     -0.14729169994765
  C   -4.24837521707023      2.50819325262652     -0.45193563898329
  C   -4.56288133986788      2.60848142088684     -1.94445717530448
  C   -4.42355520761324      1.26264165143969     -2.66913746228343
  C   -4.73278676642903      1.33625597184590     -4.16760845809640
  C   -4.58213726581196     -0.00696918589516     -4.89087974060833
  C   -4.88234628661758      0.05838895391808     -6.39268587641950
  C   -4.73014075888501     -1.28573855328201     -7.11396471486855
  C   -5.02989924994244     -1.22234131051457     -8.61714166628296
  C   -4.87514857575506     -2.57009293256468     -9.32833626913616
  O   -1.89732884493349      2.43063310111843     -0.97179914779872
  O   -3.77268079240921     -0.28675619394718      0.90661518615087
  O   -1.55079996168760     -2.56237021656880      1.91543984761071
  C   0.64625289147140     -2.56655223322656      3.95105685291726
  C   -0.29960569398594     -3.62606127357920      4.51846268986547
  O   3.23740985468702     -3.93677356599909      2.03796664487538
  C   5.08240047317697     -1.17032967519787      2.61501129374190
  C   5.27952647235762     -2.09889585071105      3.82006147361967
  C   6.40097320463647     -0.50522539192198      2.19740222618919
  H   2.69620345219774     -0.81972972918409     -2.43336965592218
  H   4.30023886266313      0.07988614061881     -4.05731414849836
  H   5.25074615252140     -1.25442304317357     -3.31160852245509
  H   6.31250673702277      0.30577109123280     -1.71420913593226
  H   6.32595236800156      1.28455026527500     -3.21117539721500
  H   5.09019604523270      2.19083599991389     -0.87741610449680
  H   4.41354046533886      2.59065223404469     -2.49322278359842
  H   3.80022740948853     -0.07912335293391      0.55436027085688
  H   5.15645415488565     -2.69501575431321      1.03723167135554
  H   2.13770065714355     -0.95237408672732      1.94968010204029
  H   0.94256881305446     -3.69127852400219      2.13014757340260
  H   0.65583400974360     -0.75734183545864      0.47553987746835
  H   -1.93370018808180     -1.21694498460036     -0.38814104541062
  H   -1.03333463499017      0.33455008090813     -0.48825683035466
  H   -2.18352399398238     -0.20034146092018      2.23027893387082
  H   -3.29662821507736      1.98621373637636      1.94056935896434
  H   -0.38004153538185      0.51753989172474      2.30776997196691
  H   0.78185243503254      3.09303575118778      3.25243928127193
  H   0.78873818349707      3.44496583047006      0.95092676929085
  H   3.23113694797241      3.24314980311137     -0.50767471166191
  H   1.24557890560645      4.60548286093916     -1.24211172721957
  H   1.73923044654860      3.47155258428011     -2.54218535442496
  H   0.30638718422043      3.09025989092081     -1.51344471292711
  H   1.63911343191602      0.17831256667632      3.82553898635776
  H   0.61824714479566      1.15557091971964      4.91148122090632
  H   3.48978327459460      1.87049857597230      4.05410319711846
  H   2.15543994599547      3.89088892961566      4.78782133390845
  H   1.72053258829953      3.04932826864773      6.30824637893863
  H   3.42384634524730      3.49340491068649      5.97910122001922
  H   3.45365071376327     -0.25069287290449      5.36359413931120
  H   4.17704580104560      1.06679148732730      6.33908806275075
  H   2.49652845343449      0.53493481075219      6.65840867362553
  H   -4.50852405870015      3.44774115322937      0.09106035641187
  H   -4.83409138384121      1.70518771594720      0.04506266539499
  H   -3.87791243173932      3.34999103489530     -2.40837448315900
  H   -5.59446977538240      3.00022410380528     -2.07570072018234
  H   -5.08927853941950      0.51322378471797     -2.18486184014141
  H   -3.38872902103572      0.88194581473393     -2.52895958748583
  H   -4.06305204237971      2.08822547405142     -4.64372883702448
  H   -5.76781927336473      1.72136204063861     -4.31614105915066
  H   -5.25162064173914     -0.75873066248743     -4.41370623824676
  H   -3.54777139718918     -0.39110006725519     -4.73787786612537
  H   -4.21235354418538      0.81020418912576     -6.86929912963977
  H   -5.91675920565665      0.44318277608053     -6.54512987402386
  H   -5.39987035039996     -2.03756449360096     -6.63672230949048
  H   -3.69572273044780     -1.67055494796132     -6.96088160887049
  H   -4.35995523963724     -0.46953803832514     -9.09054491617679
  H   -6.06348569730987     -0.83624367985613     -8.76634893386605
  H   -5.09823205154913     -2.49262730007172    -10.41207292847828
  H   -3.84137941469298     -2.96302057736017     -9.22687603726829
  H   -5.55926274662622     -3.33278963018752     -8.89979604009248
  H   -3.75233878107403     -1.25759608209902      1.03190879479470
  H   0.30877815369819     -1.54776095843216      4.24338950999148
  H   1.66142316300637     -2.69458039736656      4.38157503340516
  H   -0.37288868893427     -3.53980199122669      5.62168640760811
  H   -1.31123697505136     -3.52614489705720      4.08262847312995
  H   0.07121852934848     -4.64481398876489      4.28192107253945
  H   4.36798493473394     -0.36717992826011      2.90338248354614
  H   4.32076007874150     -2.51516973472027      4.18760107273806
  H   5.92940977278686     -2.96001446066393      3.55975454050290
  H   5.75533528986552     -1.55034712933912      4.65784771926055
  H   6.25859534173087      0.16682365337978      1.32806283298661
  H   6.82227160830752      0.09530868268376      3.02911954851773
  H   7.15462250778545     -1.26976887656795      1.91293943947675
