115
Coordinates from ORCA-job 47
  O   1.39601393274538     -3.14030244327195      2.38940732872827
  C   1.84671779633364     -1.99783424824932      2.35593543497005
  C   3.08693519227981     -1.61297559887928      3.17290159293412
  C   2.72519832356714     -1.11991491274126      4.59090712159409
  C   3.90257743491287     -0.20451940598943      4.95553162392427
  C   4.21373280019513      0.52146749087971      3.63823942591744
  N   3.84288402026494     -0.48045411824686      2.60898186095073
  C   4.24355882901926     -0.52386155419166      1.30682227392755
  O   4.05418310330283     -1.54302193098047      0.61501501825191
  N   1.26115915813086     -0.96905027100823      1.65761968177104
  C   0.14136645279483     -1.20713768134146      0.76595315600523
  C   0.54313946235039     -1.06751868754747     -0.71704672174100
  N   1.80744211441711     -1.45085419553784     -1.00895107994605
  C   2.30010403736113     -1.60312312040382     -2.37620372622148
  C   2.39943087822757     -0.21190553817670     -3.04476812133942
  N   1.66613472623993      0.00728030866950     -4.16677888809058
  C   1.59221454827284      1.31146165742027     -4.80716198124247
  C   0.26814041249576      2.07111336561278     -4.52620806198687
  C   -0.02107191053558      2.15764339577326     -3.00600110671295
  C   1.07609189743324      2.94961801936740     -2.30449937222613
  N   1.33217384493638      2.57068660488920     -1.02179875767151
  C   2.10368099014566      3.41059615371015     -0.12136587642489
  C   3.10720752031862      2.59502648774276      0.71327089396068
  N   3.63002284630070      1.48814457688451      0.10407009747129
  C   4.77793669890447      0.77785877025309      0.67934828251206
  C   5.82913840564518      0.48849752726520     -0.39010571078116
  O   3.43664638474521      2.96128326935459      1.84910036611425
  C   1.20795655415054      4.30895984009124      0.75495040086829
  C   1.86087387690077      5.64880021329702      1.15101570779972
  C   1.96739805226282      6.59361716807307     -0.05598246437687
  C   1.07903265035661      6.30469925449661      2.29723157909283
  O   1.67480549546136      3.88381369794288     -2.86168449479739
  C   -1.38100440086943      2.81413792132728     -2.69389133244314
  C   -2.62267391181171      2.09171636665634     -3.19110180785271
  C   -3.07446597129545      1.07497822014300     -2.12031827362948
  C   -4.25495161111843      0.19218398829031     -2.54888129369275
  C   -4.55801917508096     -0.91747904216027     -1.52692177943039
  C   -3.49766031423988     -2.02893157273381     -1.49952368008971
  C   -3.58847885067988     -2.96094086066440     -0.28561683223452
  C   -2.40353728755449     -3.92751497814501     -0.17715713809920
  C   -2.39418830410976     -4.78000111835636      1.09759875863228
  C   -1.10685521689123     -5.59093717316747      1.27768649938082
  O   -1.46066523700681      3.80602245115492     -1.98231403730470
  O   0.29784394599122      3.34193104634317     -5.12654957930348
  O   3.15003431519916      0.64980386127073     -2.56147904647824
  C   1.55655853471805     -2.70883481541626     -3.15005340400010
  C   2.29816016981836     -3.19164243387447     -4.40144680378652
  O   -0.27329522469073     -0.71385425047672     -1.58840811394674
  C   -1.14258750154383     -0.44414138854830      1.15626908271582
  C   -1.60790082263592     -0.89342260125712      2.54729526346295
  C   -0.99292301724584      1.07834073227424      1.07334492831625
  H   3.71477318439504     -2.52844183196678      3.20337265664933
  H   2.56828455217642     -1.96145176979376      5.29080591769252
  H   1.78204340698323     -0.53503596454985      4.54738080028405
  H   3.67013239961974      0.50079674338497      5.77662963078886
  H   4.77355259218566     -0.81609198225387      5.27139933185156
  H   3.63115459901257      1.45435818848671      3.49685559243319
  H   5.28431900878579      0.79027602680978      3.54736874828461
  H   1.74457373997152     -0.06669201822731      1.63060899049682
  H   -0.07199015996147     -2.29344918671758      0.89094929654069
  H   2.49785421550833     -1.63410051286338     -0.25780034464750
  H   3.36006891401853     -1.91100992790903     -2.25839941194562
  H   0.98499160073051     -0.70793795260165     -4.42854024739754
  H   1.70529554899820      1.20797751519058     -5.90551512280270
  H   2.44171116596925      1.90778605098721     -4.42380739716154
  H   -0.56156702291436      1.50002167063191     -5.00136718857460
  H   -0.07502149070579      1.12044363656695     -2.60166023550249
  H   0.70400595720832      1.87842916356009     -0.60810440895657
  H   2.71040270680391      4.05244642042098     -0.79822057597224
  H   3.35078209258913      1.22721161215352     -0.86505391968483
  H   5.18001892737664      1.44348499341670      1.46806684446315
  H   6.18303458586945      1.43589265113747     -0.83972348575105
  H   6.69479456637997     -0.04654072131250      0.04765136792621
  H   5.39594039095138     -0.14164721892133     -1.18925795197557
  H   0.92367250115868      3.74868536991521      1.67055362238065
  H   0.27649411622551      4.50718573551812      0.18296631030851
  H   2.88215221227260      5.41579659006296      1.52305518574187
  H   2.47336457982507      6.12056595381311     -0.92253160700265
  H   0.95751403507218      6.89991293508607     -0.40317339647347
  H   2.53135185482199      7.51343323757970      0.20206682483415
  H   1.05836333496943      5.65380849173919      3.19574198266582
  H   1.52952983375120      7.27508328696377      2.59139968283668
  H   0.02702942601922      6.50208159579343      1.99724859320990
  H   -2.42381154899648      1.56190623195285     -4.14520417487295
  H   -3.41177023816156      2.84923571289523     -3.37157574439653
  H   -3.34320173178451      1.63233276429128     -1.19671488736124
  H   -2.21205796405002      0.42997406591362     -1.85393488138981
  H   -4.03142991833556     -0.27003805006260     -3.53738794307871
  H   -5.15489836366872      0.82615622384745     -2.70529331885804
  H   -5.55855401639162     -1.35775573653114     -1.73048015030622
  H   -4.63356277056339     -0.45867862188819     -0.51401528368906
  H   -2.48304496097354     -1.57510406653473     -1.51236375469978
  H   -3.56323691451970     -2.62503050036495     -2.43783752437892
  H   -4.54555901334051     -3.53000052106014     -0.30150473666598
  H   -3.62897246957564     -2.34226922585872      0.64049781317344
  H   -1.46050940463456     -3.33779330155932     -0.22655462645135
  H   -2.37487396002443     -4.59131677858503     -1.07102791992667
  H   -3.27978668524764     -5.45434804100596      1.09325581608692
  H   -2.53430887707180     -4.11260439199494      1.97822710874952
  H   -1.15931153177807     -6.24629154868234      2.17099733203211
  H   -0.91436379626405     -6.24191728996285      0.39832730171072
  H   -0.22905592438841     -4.92457076490742      1.41033533897900
  H   0.87975881359301      3.87107678614850     -4.51807684484345
  H   0.52471044143302     -2.36851062908546     -3.38307529983771
  H   1.42498061792821     -3.55590146181075     -2.44532640911300
  H   1.73257856007963     -3.99592014709872     -4.91244831286295
  H   2.46221244924833     -2.37681925091070     -5.13554335208889
  H   3.29600744345006     -3.59993849633429     -4.13876168518889
  H   -1.90556677098317     -0.74918404577960      0.41177812700413
  H   -1.71779620746539     -1.99493078793701      2.60086843141588
  H   -0.87619014833371     -0.59536782011324      3.32696256921279
  H   -2.58314266981695     -0.43417570725759      2.80471099440311
  H   -0.89706496628614      1.41580509439979      0.02366977996277
  H   -1.88870094786569      1.59026901704451      1.47729206257722
  H   -0.12368055016876      1.44649405891371      1.65950119571084
