115
Coordinates from ORCA-job 4
  O   2.72043647990268     -1.86471295638556     -2.35327105880204
  C   2.16035549792212     -0.88983601422140     -1.84186611361210
  C   2.06631368722759      0.48321502722358     -2.56044385831305
  C   2.90113612072619      0.50567809152912     -3.84316690910797
  C   4.28641312222868      0.93935247842965     -3.33535674215637
  C   3.96467607617103      2.00795975728097     -2.27813987331289
  N   2.64182722172538      1.59623802478573     -1.76676534326781
  C   1.94237830962086      2.20192040959166     -0.77661208075175
  O   0.87642560245028      1.72023134773438     -0.33790519259404
  N   1.53583758853863     -0.91648566081742     -0.63140404682477
  C   1.65889564415312     -2.05171852024689      0.26926088850565
  C   0.24041590922215     -2.51473121597344      0.66135692153091
  N   -0.51248421028707     -2.98983905706099     -0.35880091587314
  C   -1.93158248047654     -3.39749178665035     -0.28997813946229
  C   -2.83957163917487     -2.15638753617159     -0.05601381889438
  N   -2.76651440842316     -1.63905857257952      1.20580031920219
  C   -3.07880563693624     -0.25196549142291      1.51272536092339
  C   -1.76113372737872      0.52400805178419      1.72547385553742
  C   -1.98464542438373      2.03726313473700      2.00239819436761
  C   -0.72085084279741      2.85404956424253      2.33308035412059
  N   0.26665776031812      2.19622892208566      2.98383606753187
  C   1.54987427051819      2.80611275503294      3.32247294231881
  C   2.40844918009858      2.79997958261780      2.03546848108367
  N   2.01851565038574      3.74077168016407      1.12109754286240
  C   2.44082128441710      3.56597684150651     -0.25408815803982
  C   1.87408727890491      4.68929213113689     -1.13372736822933
  O   3.30498765162044      1.98115849241210      1.81330207063602
  C   2.22590914198789      2.05062790112715      4.46495396986662
  C   1.35109456963445      1.84699833734292      5.71650264976864
  C   2.12459881833900      1.04610716232356      6.77373894801902
  C   0.83365965130140      3.17534061879426      6.28754263223803
  O   -0.64760346872775      4.06268043746172      2.03583569516640
  C   -2.76422936613696      2.66207315601594      0.81070764627874
  C   -1.99310784013864      3.23431003311378     -0.37432627643543
  C   -2.42063691752320      2.64842856819968     -1.73298825014289
  C   -2.05929158961293      1.15863778717767     -1.84302842035480
  C   -1.73831676237018      0.62827188928997     -3.24499443386336
  C   -1.29810679156625     -0.84012152754209     -3.17480513916651
  C   -0.63222334572919     -1.41995691570057     -4.42378168162150
  C   -0.07768561833648     -2.82890232053968     -4.17927689008134
  C   0.64925361734197     -3.45074378745498     -5.37676926603473
  C   1.26451431376637     -4.81708905669445     -5.06132378717134
  O   -3.98609275434438      2.63337581534698      0.82091682956948
  O   -1.05976708215263     -0.06430483909432      2.83576255109765
  O   -3.52564884700308     -1.68873320572091     -0.96630356409633
  C   -2.17363292700367     -4.56421453058656      0.68500682692121
  C   -1.36588513176704     -5.81429915056768      0.32849832935616
  O   -0.18210246790253     -2.42825011125728      1.83682489578429
  C   2.55909464658655     -1.75420161503881      1.49103348618770
  C   3.87926543989069     -1.11211917562352      1.04289682420399
  C   2.81034908571470     -3.03583546845575      2.29928983494238
  H   0.99069983056857      0.69716622008831     -2.72807915224236
  H   2.48231867804441      1.24802012230855     -4.55284421784247
  H   2.91146125137653     -0.49023916446909     -4.32166331443971
  H   4.78759414721352      0.07178073661904     -2.86046600687468
  H   4.95153936045137      1.32529791889961     -4.13146349887690
  H   4.70556076572726      2.04215233179530     -1.45418424313864
  H   3.90599511444067      3.02069028316878     -2.73412009000265
  H   1.13380669178268     -0.01497913847919     -0.29814921938172
  H   2.13377883571992     -2.85483991559446     -0.33783046133680
  H   -0.09574588862490     -2.94416433531271     -1.29423652784173
  H   -2.18756854538253     -3.73089302763284     -1.31400706207322
  H   -2.07188038285705     -2.08943885151831      1.81649136355243
  H   -3.68675040600342     -0.18406160027529      2.43896333784338
  H   -3.67744273362146      0.15995869789762      0.68089799874185
  H   -1.14640505401251      0.43190696328286      0.80051372221555
  H   -2.66494698829496      2.11735346693287      2.87848627472309
  H   0.10423213696566      1.18061151572075      3.12462474717847
  H   1.34715914119724      3.86297580910865      3.59686986995551
  H   1.09840118226703      4.18605093316558      1.30790938103060
  H   3.54898099852067      3.57746366368782     -0.28349786865782
  H   2.21738099229900      5.67489443137327     -0.76339327727001
  H   2.20088705503634      4.57634293701862     -2.18577669228938
  H   0.76586192639519      4.67273605605962     -1.11384538467714
  H   3.15216625543475      2.60118335972005      4.73836969012618
  H   2.57113142668345      1.06980537343818      4.07300963186972
  H   0.46529055258228      1.24296272652033      5.41530625512311
  H   2.47885322654014      0.07578433988259      6.36842967909829
  H   3.01742819931218      1.60818335658936      7.12297176871866
  H   1.49423938381578      0.83360480943825      7.66136343523263
  H   0.18854032688280      3.71521772667473      5.56510240253165
  H   0.23288470067684      3.00771009935831      7.20482040263573
  H   1.67695741587544      3.84710322330608      6.55843624316354
  H   -0.90896061836658      3.08233639584083     -0.23178505978820
  H   -2.17787436307043      4.32955057261478     -0.34426395734906
  H   -1.89335741440609      3.22382405160733     -2.52571507237752
  H   -3.50728213632922      2.81116180115308     -1.89177720532647
  H   -2.86162006422666      0.53040653625165     -1.40403449969257
  H   -1.15201190187551      0.98440642700748     -1.22640226472117
  H   -0.92344569287895      1.24663943848970     -3.69366750671519
  H   -2.60987194877987      0.74134652850739     -3.92725586532854
  H   -2.17224903358743     -1.45827928820977     -2.88048791728713
  H   -0.58432262538533     -0.93468900330509     -2.32418625433314
  H   0.20154002730207     -0.75676354492651     -4.75157259132571
  H   -1.35243396349692     -1.43703402964229     -5.27239741702807
  H   -0.90803191217167     -3.50085649599908     -3.85917355844583
  H   0.64430193212735     -2.78424427805991     -3.33081338434420
  H   1.44856418187296     -2.75182199654630     -5.71035841031432
  H   -0.05565572797157     -3.53629321577803     -6.23387982656963
  H   1.78361180630081     -5.24968348572423     -5.94073709918453
  H   2.00590830099526     -4.73564965899600     -4.23899087877557
  H   0.48880952917269     -5.54483896067048     -4.74086380059257
  H   -0.62377040668735     -0.90449747844462      2.52872106746943
  H   -3.26171623594856     -4.78446790647189      0.66272811983339
  H   -1.93563301241788     -4.24437414415190      1.71916962771686
  H   -1.57574035433680     -6.64004398945369      1.03691124542750
  H   -1.60659733994677     -6.17609810916373     -0.69300746118417
  H   -0.27598699662951     -5.61269682737001      0.36448095377311
  H   2.01437248554199     -1.02637008907031      2.13340035981938
  H   3.71879964626279     -0.11874715826605      0.58512799378838
  H   4.53974866848723     -0.95181628189484      1.91746328868567
  H   4.41225938717980     -1.76471192294496      0.31965274851516
  H   1.86693222343587     -3.48898271160525      2.65781386958581
  H   3.35177935875311     -3.78584455385551      1.68331256040395
  H   3.44074026352569     -2.81735717237682      3.18450221905890
