115
Coordinates from ORCA-job 51
  O   0.79243468504760     -2.58510293231390     -2.25867832837182
  C   1.45994778873074     -1.80732395375852     -1.57357894889795
  C   2.55735868686322     -0.95045436686140     -2.23420157790991
  C   3.65972259934757     -1.87180821199969     -2.79247259739543
  C   4.55065339747467     -2.09285726373302     -1.55739254209763
  C   4.54084491324672     -0.72707918425167     -0.83882365862909
  N   3.29251779559177     -0.07745812644077     -1.30975206289405
  C   3.09954490682161      1.28912950742993     -1.36852014323459
  O   2.23320068175039      1.80636807634621     -2.07474943417612
  N   1.33027118790040     -1.68360261461821     -0.21789819129025
  C   0.50638340675142     -2.59706066825786      0.56328337688126
  C   -0.28664156223791     -1.90865489480200      1.69275135640659
  N   -0.33568647420841     -0.54183013604212      1.65619443511253
  C   -0.75614832840886      0.21085615925342      2.83421722700000
  C   -1.46578646033158      1.50342416939504      2.39936064930037
  N   -2.28898733992196      1.38898613665280      1.32212177945979
  C   -2.96456769070851      2.51734190409498      0.69490363162547
  C   -2.12111416897578      3.79797297695258      0.43000048256495
  C   -0.81276546130679      3.63294936408487     -0.40869722077069
  C   0.44688630212709      4.28154314461238      0.16966658987106
  N   0.70069947124776      4.02738382421492      1.48025348599552
  C   2.05635698454280      4.17117001462615      2.01295437879407
  C   2.88906479174641      2.97716106894305      1.46222895681585
  N   3.35144938338764      3.18887221579276      0.19265568707470
  C   4.06669400264761      2.15175849917460     -0.52809285256837
  C   5.11472193037573      2.77769207711801     -1.45977863765458
  O   3.09203470595316      1.93789400168375      2.09906505672143
  C   2.04692332698668      4.22486197937423      3.54223509235695
  C   3.27941439631065      4.90800580960811      4.17662508851027
  C   4.60950760534353      4.26028371952489      3.75845384361987
  C   3.29414873489429      6.42260344534609      3.91391097750889
  O   1.23808682600035      4.88346599684414     -0.57395791742417
  C   -0.45116926109517      2.17111862742720     -0.72032853953216
  C   -1.03908694386226      1.56277483757763     -1.97384549458708
  C   -1.53555873845482      0.12019744727548     -1.81267737602877
  C   -1.66635689533811     -0.63887129631437     -3.13561679642939
  C   -2.24797329804480     -2.04506780623191     -2.96127760316128
  C   -2.15362242781826     -2.90373773552348     -4.22567708536284
  C   -2.72365811246810     -4.31555036974374     -4.05196428473492
  C   -2.60240343809552     -5.18999119057040     -5.30505968833037
  C   -3.16083898425911     -6.60805211134513     -5.13054641798196
  C   -3.03205307878336     -7.47487207969927     -6.38685269116682
  O   0.32626527322377      1.54352802000419     -0.00566212345233
  O   -2.94251594596068      4.71116546435224     -0.29458860770041
  O   -1.29105371138743      2.58894734874357      2.97895299983302
  C   0.43434575392542      0.45892412697120      3.78245417239412
  C   0.05786866054133      0.97334352739485      5.17375188995011
  O   -0.82876157773045     -2.57496790676770      2.57584325387457
  C   1.31509623515370     -3.78354570081848      1.15694285431536
  C   1.81784775682344     -4.73306630813819      0.06493087530805
  C   2.45591486331196     -3.28844431581897      2.05613682907958
  H   2.06712290340829     -0.32349119740080     -3.00412149041659
  H   4.21358431073114     -1.33881289986666     -3.59271948130650
  H   3.23895310659192     -2.80217294579356     -3.21722748611864
  H   4.10529674861403     -2.87191439376671     -0.90572104116443
  H   5.57806750197036     -2.42186410840791     -1.80604525343433
  H   4.55704509510269     -0.82391171105365      0.26730047757030
  H   5.42230063145769     -0.12049700298687     -1.13243599754839
  H   1.96441973809006     -1.02734372789176      0.24852800379669
  H   -0.23601861173750     -3.01213347514640     -0.15240550412122
  H   0.17310613350848     -0.01814903338355      0.92610344396318
  H   -1.50069607072435     -0.43255646998083      3.35744691537448
  H   -2.29156722335355      0.48365015782708      0.84393576940188
  H   -3.82708916324092      2.83694349055312      1.32294446037824
  H   -3.38372100692924      2.16980859093855     -0.26940420743165
  H   -1.84071347266855      4.21566190146031      1.41770198758299
  H   -1.00980123339427      4.14080379877522     -1.37195136024495
  H   0.04290304183637      3.45206494791260      2.03291974899451
  H   2.46756602363131      5.10627045327341      1.58007583035256
  H   2.89311573950029      3.94944354121975     -0.34131465709721
  H   4.54649899768040      1.52764088529018      0.24947985610221
  H   5.81094520726805      3.41546620744570     -0.88120468367965
  H   5.70272794223030      1.99883185792648     -1.98664429462451
  H   4.61203772607175      3.39808938858778     -2.22881045397239
  H   1.95609914983967      3.18637324653455      3.92185543206117
  H   1.13151736035595      4.76727527956573      3.85784413685080
  H   3.17004173479596      4.76355370514741      5.27518760206777
  H   4.59669996455412      3.16443639532254      3.91512818551519
  H   4.82204901453221      4.43585870572513      2.68187508013860
  H   5.45528079656366      4.69305183621773      4.33155163217251
  H   2.35749255111502      6.90635062082248      4.26024234369000
  H   4.14187045065747      6.91074058121363      4.43732139591377
  H   3.40672784924001      6.64853073031477      2.83194288586410
  H   -0.16750789513482      1.58178419326300     -2.67133905699366
  H   -1.81460564606292      2.22393597212058     -2.41010048210851
  H   -2.52398819426387      0.12373510715170     -1.29671889924320
  H   -0.83508179523006     -0.42450843384053     -1.14887236299250
  H   -0.65734159532133     -0.71990912966326     -3.59535434033642
  H   -2.28882974501887     -0.05393425447993     -3.85024311745196
  H   -3.30853764344441     -1.97433406955010     -2.62636755560684
  H   -1.68951906613987     -2.55770427381979     -2.14917230927209
  H   -1.08268327432583     -2.97549376672986     -4.51798225565290
  H   -2.67315518504140     -2.39359008675504     -5.06939269148294
  H   -3.79425938274884     -4.25074316956047     -3.74964170235737
  H   -2.20215514568545     -4.81432978848699     -3.20365780284065
  H   -1.53166030422229     -5.25056387176538     -5.60699060318610
  H   -3.12312690096770     -4.69163797587215     -6.15503051546922
  H   -4.23032627400917     -6.54399138414402     -4.82755809138481
  H   -2.63976015756754     -7.10174382155686     -4.27951909965879
  H   -3.44331908805973     -8.49304941441929     -6.23003919178517
  H   -3.57395591897215     -7.02393652489220     -7.24509159824813
  H   -1.97001950275763     -7.58653959761753     -6.69201116143861
  H   -3.59113275258665      5.08442403288766      0.33071098648960
  H   1.16246999959430      1.13291553349531      3.28292899246538
  H   0.94594392588522     -0.52142448469156      3.88194175662071
  H   0.95952095983133      1.04888278844302      5.81486894698733
  H   -0.41326198891047      1.97189095998094      5.11694886988465
  H   -0.65188832562394      0.28386989570959      5.67847374616778
  H   0.58142077884088     -4.31995865519404      1.79412060247933
  H   0.99291995669025     -5.08722733282171     -0.58353590557638
  H   2.55849703161696     -4.23710630886278     -0.59640303114352
  H   2.31558155927332     -5.61626812378949      0.51477587917928
  H   2.08455321098195     -2.63015790063599      2.86754581298562
  H   2.98138834455358     -4.14023107583766      2.53238966676479
  H   3.21399992285647     -2.72193871122919      1.47363308898346
