115
Coordinates from ORCA-job 53
  O   2.97659954198138     -1.86052624613089      0.86294683365206
  C   2.76975011912823     -1.19627780519933     -0.16020961234143
  C   3.79963292870968     -0.20318431180687     -0.73905294231288
  C   4.52583777986348     -0.79211791617174     -1.97922013884992
  C   5.78046369501039     -1.43357645402790     -1.37701535719091
  C   6.18203539803663     -0.41862994103985     -0.30463297001445
  N   4.88967622043238      0.09840178491058      0.18071258159889
  C   4.88264504054654      0.71608005306381      1.41819487301886
  O   5.94877651556243      0.90256792646987      2.00630084062428
  N   1.63332342643358     -1.29696319444716     -0.90939932452835
  C   0.58544773443361     -2.31425508447766     -0.77091033243736
  C   -0.37493548816442     -2.05660682494117      0.41256195097791
  N   0.21025169048504     -2.07538817903844      1.63899787114962
  C   -0.53510720465851     -1.78098628598892      2.85255034540904
  C   -0.06852440269853     -0.41139764625890      3.37465722436403
  N   -1.05110496408872      0.45975460824584      3.73801895604699
  C   -0.75122494789539      1.86942700919514      3.92792687747230
  C   -1.70813904870646      2.83618410863322      3.20173889685386
  C   -1.96393464657083      2.52848588134676      1.68149520475368
  C   -0.70599767257386      2.05677902523465      0.95296085930565
  N   0.05457589923375      3.00887872904701      0.34600265722113
  C   1.21109297595827      2.62001534560803     -0.46294079550993
  C   2.50034705683736      2.44770177259785      0.39641170020319
  N   2.44904030149857      1.39201599000962      1.24822940341038
  C   3.55101274822195      1.03132054300756      2.13343238452953
  C   3.75601197304441      2.05447672480999      3.25392154139160
  O   3.48627368265066      3.17548277669934      0.24703618391610
  C   1.44327429431161      3.58557703552434     -1.62268110580386
  C   2.34884527114477      3.00079369203240     -2.72640037088950
  C   1.67706692742198      1.83355225638388     -3.46267033754413
  C   2.77523086004348      4.09698256082854     -3.71158171112723
  O   -0.39210546901400      0.85866410836402      0.91512354703327
  C   -3.08818198172302      1.49939362919625      1.44258993439993
  C   -3.69917578696273      1.42281823928891      0.06060480760311
  C   -2.75151753558471      0.95628371871108     -1.06461703122460
  C   -3.47412132491567      0.79526127415941     -2.40809579369617
  C   -2.57594078508267      0.18242775776890     -3.49527206023282
  C   -2.30641339213592     -1.31521623808277     -3.28811204964213
  C   -1.40302517323536     -1.96339110148003     -4.34854753311599
  C   0.00207513819440     -1.35969310995893     -4.47050221163359
  C   0.92161099908408     -2.12214228605714     -5.43075406616970
  C   2.32938051458946     -1.52942138377429     -5.52596636123401
  O   -3.52216765436789      0.80581439177334      2.36336585959493
  O   -2.93482173994756      3.03293513935804      3.87605326351664
  O   1.13620382434623     -0.14367210213436      3.45292767267279
  C   -0.31886103881809     -2.87461138807988      3.91628446361956
  C   -1.15922782255813     -2.66846388152328      5.17864034668112
  O   -1.58948049018203     -1.92179200938235      0.21535215660635
  C   1.12630275860469     -3.76926152810161     -0.77768498708918
  C   1.99497659228273     -4.02539034805454     -2.01516470313430
  C   -0.04405770686429     -4.75982937895475     -0.70670449385059
  H   3.25465316426275      0.71197463743760     -1.04500141279450
  H   4.80122589473246      0.03832091786356     -2.66208852246833
  H   3.88323206834916     -1.49305405120061     -2.54757478042369
  H   5.52177454129817     -2.40363790792785     -0.90399285043642
  H   6.57958297764492     -1.61407633577113     -2.12203092408676
  H   6.75016893807285     -0.84572011647987      0.54325100699778
  H   6.79941901214214      0.40768808529866     -0.72464691314926
  H   1.54516073533725     -0.66640351185318     -1.70985271350144
  H   -0.05703520398388     -2.19480982998420     -1.66344169439031
  H   1.24620594945696     -2.07768861430736      1.67907933539590
  H   -1.60273715041217     -1.73472075838854      2.55468372008658
  H   -2.01964999799931      0.22406265920570      3.49199236837942
  H   0.29135363962934      2.02079572873579      3.57740641765110
  H   -0.77509026313384      2.15463532779779      5.00253879224887
  H   -1.19684002535550      3.82302432142465      3.23483715523946
  H   -2.32106896696934      3.47414425031312      1.21907127129776
  H   -0.18133361191782      3.99892959120157      0.43466745946609
  H   0.94823673737448      1.60780894785109     -0.83764398120209
  H   1.56074070046483      0.87881639814439      1.34883814706390
  H   3.23875932943986      0.06767665805122      2.58358994053985
  H   2.84096516957475      2.09660902559879      3.87506759683819
  H   4.61179502195493      1.75007925030468      3.88285598252302
  H   3.97606698486110      3.05268515699526      2.82913892276820
  H   1.91902298526445      4.50443903633750     -1.22050575023359
  H   0.46074541927518      3.86564554433061     -2.06343656588362
  H   3.26708673746307      2.62778393044775     -2.22142536501693
  H   1.33165849619941      1.03753858517824     -2.77021336256373
  H   0.78079203871281      2.17479444610321     -4.02372543225750
  H   2.36601363462564      1.35674499116727     -4.18778657618655
  H   3.31952923632944      4.91119233537690     -3.19207713412103
  H   3.44167419479207      3.69283147756436     -4.50067407521776
  H   1.89206112922226      4.54481161623344     -4.21649014065010
  H   -4.10333502993538      2.43268087846921     -0.18371075237586
  H   -4.55807859332417      0.72737129484074      0.14049037179411
  H   -2.28757157223056      0.00047757950030     -0.74692681244994
  H   -1.92471395682263      1.68643084528319     -1.19824438709167
  H   -3.85443537433967      1.78548464101973     -2.74490028716028
  H   -4.37345848099026      0.15341168960840     -2.27190565780031
  H   -1.61483668470630      0.74431889467655     -3.52216980429298
  H   -3.04233642053343      0.33439064216514     -4.49409497897966
  H   -3.28207297190372     -1.84931534942326     -3.27918672966792
  H   -1.88442704175074     -1.48734050258565     -2.27346664935335
  H   -1.89954198581994     -1.91382578932282     -5.34451761441345
  H   -1.30557991082635     -3.04780540917394     -4.11718875330023
  H   0.48046901933775     -1.33505928342054     -3.46443751532311
  H   -0.06193640878288     -0.29758250750816     -4.79211960324367
  H   0.45341032065778     -2.14814473504141     -6.43988596007086
  H   0.98439179727893     -3.18512362064506     -5.10588795453268
  H   2.97875421123393     -2.11192488097249     -6.21017034095352
  H   2.30336176164535     -0.48387613809408     -5.89846161609092
  H   2.82467903666192     -1.51234349706111     -4.53212486915906
  H   -3.42526519787832      2.18706971475942      3.78970352120185
  H   0.76279541410099     -2.89523263520671      4.17193647194404
  H   -0.55582613563387     -3.85116085354189      3.44377592141765
  H   -0.99184326747967     -3.48638232631458      5.90747303681573
  H   -0.91042235226026     -1.71337539347190      5.68452746873543
  H   -2.24391203952434     -2.64663204610471      4.94164769744337
  H   1.75787961926867     -3.89505450862150      0.12637831375932
  H   2.87731697717530     -3.35682056097856     -2.04939643034339
  H   2.37087182106020     -5.06813789627559     -2.02092392963624
  H   1.41445571352286     -3.87183413694191     -2.95006593080875
  H   -0.64853678715271     -4.62433587643239      0.21129723012856
  H   -0.72550913895734     -4.63528294778335     -1.57506832982919
  H   0.33037851085723     -5.80309851560705     -0.71536799632916
