115
Coordinates from ORCA-job 55
  O   6.68039891181035     -0.34788896969202      1.46469844234700
  C   5.53596322799246     -0.07309709022450      1.81576441368372
  C   5.09301262451911      1.40317367564483      1.87876207760395
  C   5.83366485871859      2.18309249070815      2.98371865856091
  C   4.85826890182799      2.11358456384090      4.16942416828260
  C   3.48888392517642      2.30252831194626      3.49986435914401
  N   3.66887265317512      1.64063867576492      2.19190108460813
  C   2.72294634662660      1.45019867600339      1.22618081696585
  O   2.99671581338485      0.83170386984210      0.18144269564105
  N   4.59655681642061     -1.00568744376337      2.15659117662917
  C   4.81752679449161     -2.43095566067558      1.96545861956765
  C   4.40646548665506     -2.90566124914554      0.54501288437405
  N   3.51945861795517     -2.08334780037545     -0.09149703342979
  C   2.94496856136975     -2.36850949999567     -1.40615052340512
  C   1.97180348268066     -1.20742197015460     -1.65811808060765
  N   2.31870929172754     -0.30467655172117     -2.60276210400607
  C   1.71259908405508      1.01710462243398     -2.72140034855421
  C   0.64175665869320      1.18867681510127     -3.81114426007934
  C   -0.72608883542638      0.52173273232989     -3.45834994803913
  C   -1.35925249387820      1.11311201551544     -2.17091963559679
  N   -1.45021126382178      0.21444656095926     -1.14597060601611
  C   -1.93147460149260      0.57688526936639      0.17973659659606
  C   -0.97149577550650      1.48124772901187      0.97944525374724
  N   0.35914752744107      1.28933751338235      0.73518324749944
  C   1.35095181865433      2.08831373871207      1.43008499933495
  C   1.38788463220608      3.54076451552326      0.89877519455419
  O   -1.39110085272056      2.27229707679325      1.82762314313481
  C   -2.19722010128710     -0.70681487310136      0.98988211221690
  C   -3.37077671347260     -1.56299373309333      0.47300164027144
  C   -4.72311372488874     -0.95828451848257      0.87403172713206
  C   -3.24376404940732     -3.01191257512204      0.96452503543624
  O   -1.77572958133391      2.26992908691205     -2.12128408011583
  C   -1.72435694847416      0.73696405008662     -4.60457208359110
  C   -2.77318313155735     -0.32664246816604     -4.86408032490479
  C   -3.86342605886160     -0.36089468819822     -3.76571734211368
  C   -4.57025480535433      0.98261853571553     -3.54889828840836
  C   -5.67865509871877      0.91500205434441     -2.48501811575941
  C   -6.01956832610211      2.27822158780061     -1.85673117713118
  C   -4.92093333844073      2.78062842742994     -0.91091470086441
  C   -5.17859736193153      4.14468771957779     -0.26371607621637
  C   -4.04667311389319      4.59498644528162      0.67773548499696
  C   -2.73031463961349      4.92838237743011     -0.03510196763104
  O   -1.69793220094032      1.77646751749010     -5.26153152164154
  O   0.53111484111885      2.57166650265441     -4.00150977463536
  O   0.94629259581421     -1.11208783253884     -0.95941073834970
  C   2.18195359517991     -3.70466130364250     -1.45686852903674
  C   1.59987795544642     -3.98939171871761     -2.84249956203124
  O   4.81316832969720     -3.97342163016845      0.08451594546852
  C   4.09970014983613     -3.24972492473983      3.07539829085873
  C   4.46829939162379     -2.71458840409195      4.46873817579473
  C   4.40616077776651     -4.75111336788612      2.98362799092106
  H   5.31243632310188      1.79280784248232      0.86378859162454
  H   5.98236719405363      3.23545562337586      2.66538506107696
  H   6.82896305024863      1.74397787334858      3.18252555093536
  H   4.91079462735632      1.11409477429464      4.65025562308842
  H   5.05219972694410      2.87357741925287      4.95039967350395
  H   2.65468645991040      1.84384938682693      4.06713640432205
  H   3.25265318546927      3.38115529411451      3.36499077834739
  H   3.67059942193081     -0.67425217240378      2.43600545108225
  H   5.91342037680980     -2.59492879989995      2.02834563735403
  H   3.40462505234410     -1.11965680800490      0.25449632454174
  H   3.75067188705021     -2.38317513088692     -2.17898232547655
  H   3.20612960122538     -0.46514728260055     -3.08246325239277
  H   2.51423255829624      1.74195295705547     -2.96183341501171
  H   1.30616690954435      1.30805586401519     -1.73566432185715
  H   1.00639607529160      0.66149893004374     -4.73528476685620
  H   -0.56932899424198     -0.56702418420949     -3.31588617779537
  H   -0.79620421654047     -0.58162039836189     -1.19329652061262
  H   -2.85571651686871      1.17571857173169      0.06816648932114
  H   0.68281515944543      0.56252871846931      0.07678626654068
  H   1.07512198104492      2.12333129084827      2.50583421325618
  H   0.38215012319290      3.98373686593291      1.02398915841052
  H   2.12111735040585      4.15989846240275      1.45392703755682
  H   1.65250374816009      3.54714106602328     -0.17651070945980
  H   -2.38252772626570     -0.41534791459199      2.04549701866998
  H   -1.25860492398400     -1.30463191723068      0.98780107045093
  H   -3.30916363685396     -1.57185425045288     -0.63948721663557
  H   -4.81108654896621      0.10188204827632      0.56389641392836
  H   -5.56727884135784     -1.51068159897480      0.41351165227006
  H   -4.85574350670267     -0.99311956294284      1.97647825415493
  H   -2.29682904801936     -3.47714361757212      0.62037704719638
  H   -3.25464586954754     -3.05539670081343      2.07502175463482
  H   -4.08349235416548     -3.63818913663709      0.59922982014489
  H   -2.28005611279063     -1.32064204644722     -4.92635468755974
  H   -3.22884862226363     -0.09588551983118     -5.84790672114121
  H   -3.41395544189146     -0.69325761503744     -2.80474128107370
  H   -4.60143591423917     -1.14467149738437     -4.04433270715561
  H   -4.99198168492749      1.34677228492949     -4.51180586497663
  H   -3.81684992179637      1.74010010074953     -3.24923216714689
  H   -5.35838728392304      0.22656613774353     -1.67143895614603
  H   -6.58957227219473      0.45306122500656     -2.92494895122162
  H   -6.98053346732122      2.20218196725957     -1.30096510333434
  H   -6.19405604158182      3.02761388652308     -2.66227583655928
  H   -3.94861261015363      2.80319235652050     -1.44414061764339
  H   -4.79162192498746      2.03082786306835     -0.09618657218753
  H   -6.13820465545297      4.10752885875443      0.30011121320449
  H   -5.32520827603586      4.91067102767398     -1.06016252219710
  H   -3.85287647117087      3.79505847614856      1.42675487451024
  H   -4.39020371150907      5.48180216704092      1.25482510830684
  H   -1.96462459536151      5.27114280142144      0.69068621135959
  H   -2.31120641034115      4.05330598266399     -0.57035914009278
  H   -2.87258592976898      5.73905370314402     -0.78206944429053
  H   -0.30146882537307      2.69089031342249     -4.52395715011218
  H   1.37711727267817     -3.64882020166364     -0.69479373299152
  H   2.88566901494035     -4.50141210230918     -1.15083208688392
  H   1.07259199894333     -4.96368116041089     -2.85944851039858
  H   0.86762724837252     -3.21368864753037     -3.15288955127003
  H   2.39377742980373     -4.03026998720815     -3.61788549534169
  H   3.00341494688365     -3.10747215821232      2.91862127009665
  H   4.20035241683604     -1.64785270834331      4.60212653514632
  H   3.94845539361261     -3.29563318496115      5.25685665829558
  H   5.56073847117721     -2.80834035687052      4.64398139709549
  H   4.16013047320051     -5.16808322269417      1.99070327580963
  H   5.48681071368484     -4.93639199009349      3.15828730343475
  H   3.83734550969774     -5.30372514989048      3.75874925294362
