115
Coordinates from ORCA-job 5
  O   3.66817244002158     -3.35319488626860     -0.89743321984118
  C   3.76818835683347     -2.21087983822229     -0.45219801664368
  C   3.91219819276689     -1.01484153469321     -1.41065898794223
  C   5.34121913882945     -0.88297655921721     -1.97840786367417
  C   6.00334689916359      0.13528298469911     -1.03582347960480
  C   4.87794981972935      1.14894163303915     -0.78012631761777
  N   3.66830272818913      0.30440305881408     -0.79526334448409
  C   2.40057766643780      0.65275439956432     -0.43548869071480
  O   1.47781333703520     -0.18346096278161     -0.45047413632915
  N   3.78315173195969     -1.92924411179742      0.88415172447433
  C   3.51876468548103     -2.95789108839731      1.88125463078933
  C   2.03549723457677     -3.40941979471534      1.88306920076923
  N   1.15221375606369     -2.42516998407317      1.54102301154886
  C   -0.29354319041439     -2.61507985520126      1.51000601968286
  C   -0.87684179081211     -1.26930763042067      1.08011231277558
  N   -1.64920574386678     -1.23538178002956     -0.02566260677370
  C   -2.13943195350636      0.03798081646117     -0.52724648313670
  C   -3.37963696265045      0.57562417733365      0.23560513670062
  C   -3.49238948109243      2.12682217406647      0.09826401730293
  C   -2.51772935547444      3.01559380740421      0.88743949378463
  N   -1.65416416734121      2.39049974339639      1.73926476120230
  C   -0.59647797719716      3.13097991108371      2.41515542093475
  C   0.67683593811792      3.23881799148833      1.54757848558489
  N   0.95146754276437      2.14230839206917      0.77574751764525
  C   2.13578240460979      2.10932781463053     -0.05855961361523
  C   1.95855014862817      2.95974993565764     -1.33631451871802
  O   1.40754607123041      4.23313126299635      1.56698555264559
  C   -0.29334094661832      2.47576933880672      3.77841206587909
  C   0.86756122986009      3.09285786864516      4.58022765143318
  C   1.04317203987363      2.32961024322382      5.90166159578308
  C   0.68102933152805      4.59898633156646      4.81557497315624
  O   -2.56200621209470      4.24163606230458      0.74743028948502
  C   -3.50303514518946      2.42611959132884     -1.40812129273851
  C   -2.35580552228649      3.18987939091975     -2.02811087873790
  C   -2.27375894888967      3.09436188029754     -3.55360015394033
  C   -2.00637162259255      1.67934062174673     -4.09381729182248
  C   -0.65695443208498      1.06188004295346     -3.70261013362261
  C   -0.52242862590247     -0.39682799631471     -4.15467051804036
  C   0.81373183012571     -1.05891405945466     -3.80046079757394
  C   0.93635479613397     -2.49568528358929     -4.32398687225679
  C   2.29961923756068     -3.15104854793019     -4.07123553279995
  C   2.40895701237415     -4.56799768498824     -4.64199387569645
  O   -4.41642175260425      1.94563209440550     -2.08441034799222
  O   -4.56048868031283     -0.06351655580309     -0.19363475088835
  O   -0.62753927155079     -0.23997164626284      1.74042694110899
  C   -0.87914288415435     -3.00626650176832      2.88417946960816
  C   -2.38953058634468     -3.24384376383217      2.83263522568591
  O   1.71496578137366     -4.54024549701074      2.24684752536943
  C   3.97049039443673     -2.45607660150998      3.27778215046652
  C   3.61632254418816     -3.44151200153053      4.39937131737704
  C   5.47723248204971     -2.15070097270821      3.27845001415834
  H   3.16280646229867     -1.19888723321401     -2.20338102689983
  H   5.29375124229782     -0.48238942347112     -3.01197799417343
  H   5.85252950415801     -1.86277346631533     -2.02090499495293
  H   6.29383927104950     -0.35715168947194     -0.08407593627973
  H   6.90886579752787      0.60995545278609     -1.45986166228962
  H   4.97772288002588      1.68797383463671      0.18304894598365
  H   4.83398999251070      1.91212589754854     -1.58830115697003
  H   3.81838081961982     -0.94914795878117      1.17282081509207
  H   4.09025066443496     -3.86742832607553      1.60298914230276
  H   1.50807935787610     -1.59558206452232      1.04885961023884
  H   -0.55723754131307     -3.40687944124104      0.76950820972942
  H   -1.84376580951938     -2.09967957765949     -0.53169900904744
  H   -2.40645419438230     -0.08710645288090     -1.59308249127053
  H   -1.29667925504100      0.75651639392909     -0.47192849971530
  H   -3.26030858972220      0.33688814876082      1.31469587937708
  H   -4.50667362020959      2.38749180164723      0.46850478110513
  H   -1.55450175730345      1.36137768947415      1.74882437204701
  H   -0.95003018896577      4.17221482725185      2.53755134666414
  H   0.41510786440731      1.26634004528624      0.87732975314537
  H   2.98500594119503      2.53578140041375      0.51998633540933
  H   1.71250638318415      3.99481471180643     -1.03349249563187
  H   2.88212055884654      2.98285873266565     -1.94835474003062
  H   1.13611913534490      2.55022366377802     -1.95382036905586
  H   -0.08886349703274      1.39672692803258      3.60654711592743
  H   -1.22691288094086      2.52617258573041      4.38184444364147
  H   1.80003582294249      2.96164099709754      3.98531802698251
  H   1.19372686716063      1.24320800687294      5.72984613590595
  H   1.91514610207939      2.70843449764448      6.47334057929970
  H   0.14580339656351      2.44314058675768      6.54735045256899
  H   0.71491639107802      5.15696198023776      3.85978127660377
  H   -0.28979806028992      4.80672957845641      5.31566945834463
  H   1.48509008886520      5.00018796483891      5.46637710839017
  H   -1.41603661193269      2.86321486713499     -1.52898510856010
  H   -2.46701069243621      4.23791435842273     -1.67135771596849
  H   -1.48046028835741      3.78856287221408     -3.90557948018741
  H   -3.22874648442779      3.46405581374559     -3.98077102731849
  H   -2.07849720715295      1.70141468784007     -5.20318961798325
  H   -2.83071505169778      1.01179417637507     -3.76217694937937
  H   -0.51010448995203      1.10670110318857     -2.60133553375429
  H   0.17151676228964      1.66517118948705     -4.13892174772914
  H   -0.68391018781228     -0.45465673273324     -5.25525350159126
  H   -1.35371888184267     -0.99131639474514     -3.70852119078608
  H   0.94969323543924     -1.04363270850332     -2.69644938573691
  H   1.64485266502974     -0.44416011996537     -4.21911711623146
  H   0.72254946774333     -2.50301553810249     -5.41793930064298
  H   0.13765071053465     -3.12197751924121     -3.86360786999804
  H   2.51431954429359     -3.18780911765199     -2.98144917678482
  H   3.09531416597418     -2.51016326993443     -4.51723204589131
  H   3.40221882380499     -5.01404387867262     -4.43293824966257
  H   1.64571970787186     -5.23859461083999     -4.19381450000554
  H   2.25510861310816     -4.58026946794025     -5.74219036336634
  H   -4.84083725331985      0.43197309773301     -1.00306958821419
  H   -0.62796658076478     -2.18921509267459      3.59249638029488
  H   -0.34686728670144     -3.91825495104762      3.21547675568227
  H   -2.77744518922898     -3.53910018887670      3.82747022160088
  H   -2.94894518819559     -2.33843993042636      2.51615089132321
  H   -2.64752766411567     -4.05889901335862      2.12383634230693
  H   3.41257386230314     -1.50762868473223      3.46745890467016
  H   2.52706016601356     -3.61254572664118      4.48041184338532
  H   4.08956587722669     -4.42885045736218      4.22097971965971
  H   3.98196406800894     -3.05515418733994      5.37213311960197
  H   5.76413137313096     -1.42670617956604      2.48945053608784
  H   5.79260552647639     -1.73011901300436      4.25442075175544
  H   6.06027582098071     -3.07938590518395      3.10496381083439
