115
Coordinates from ORCA-job 60
  O   4.92800040114982     -3.10963728154562      1.11700702682762
  C   4.64464060632328     -2.00269198325204      1.57259862924035
  C   5.74035556380396     -0.93103164418473      1.61977913416588
  C   6.64920608934850     -1.14247816083865      2.85298463415764
  C   7.17726993331774      0.26396230959885      3.16334983201025
  C   5.96474194770139      1.16099733264313      2.87830648766845
  N   5.29133929313247      0.46541186614346      1.76429506757910
  C   4.38649136208771      0.99358841894503      0.90890275718507
  O   3.90123807207703      0.31339104024075     -0.01958844919001
  N   3.43702076457417     -1.69625331982981      2.14219947293685
  C   2.41293232889614     -2.72573244788569      2.23795918526077
  C   1.32303609280071     -2.62867541305222      1.15353381705969
  N   1.40673864476329     -1.57772030774696      0.26999296862137
  C   0.48202738277277     -1.55642807338664     -0.86720575815319
  C   0.82216030420753     -0.56310088946310     -1.98372191188236
  N   1.72236757062226      0.45064266612648     -1.72772872915355
  C   2.01017891683677      1.42803275740544     -2.77612241400852
  C   1.29395898546816      2.77967428948796     -2.64188289205378
  C   -0.19802372941776      2.62962604559964     -2.23889755776813
  C   -0.35665957782798      3.03039587457429     -0.75898808391523
  N   -0.01616491929265      2.02549106351664      0.09962458420423
  C   0.23516482848449      2.22140204319726      1.52082557691555
  C   1.74090200161210      1.95434361206964      1.75659184329405
  N   2.57657775976872      2.63484699258445      0.92652181188958
  C   4.00754697141234      2.47267309232099      1.09640876827215
  C   4.78067656219055      3.34887335876849      0.10473649866300
  O   2.17888552988129      1.18476311863902      2.62878325589831
  C   -0.68387957632336      1.37282273634185      2.41218954076003
  C   -1.07524136656539      2.01533727888020      3.75902406946037
  C   -2.03854345907520      1.08600632670014      4.51266789501600
  C   0.12074646194470      2.39567441722692      4.64452641587676
  O   -0.68464047918941      4.16511396113540     -0.40712006285451
  C   -1.13715230575915      3.49681134672857     -3.09111011853806
  C   -2.57945240649025      3.03186083680284     -3.08791811590416
  C   -2.74743463444341      1.77906768704426     -3.98083563519513
  C   -4.06665311759232      1.03771442968707     -3.74007472015880
  C   -4.23755586073256     -0.18520573115546     -4.65057689716823
  C   -5.51503826252779     -0.99905934716865     -4.39202997937202
  C   -5.54441278233167     -1.71756313774879     -3.03652056666830
  C   -6.80131246647493     -2.56445439097856     -2.80994281680644
  C   -6.82315370171591     -3.28249698949536     -1.45438575530429
  C   -8.07792682538045     -4.13195915621417     -1.23146797572135
  O   -0.72248765720810      4.43837900378137     -3.74860636786668
  O   2.01871921530337      3.61725483124281     -1.71381760917894
  O   0.18247028707547     -0.60686146006236     -3.04135722400669
  C   -0.98008375533813     -1.28253000008377     -0.38956999036694
  C   -2.06425398941439     -1.76256465898395     -1.35285072461011
  O   0.42530764124022     -3.47291922448983      1.09130341044018
  C   1.83537875417563     -2.83139367035715      3.67825872520802
  C   1.21822014034046     -4.21029561398367      3.95035808472775
  C   0.85487281278567     -1.69513549531931      3.99651100663865
  H   6.30552314235038     -1.04597379938285      0.67112714789833
  H   7.43630377301264     -1.89246264119019      2.65482244783670
  H   6.03416623614258     -1.51540222717857      3.69895680058654
  H   7.54953965877280      0.37661231249824      4.19984734575929
  H   8.00698788690681      0.52557462747789      2.47391697258350
  H   5.27987291656151      1.22711605078566      3.75298353567801
  H   6.25930917222038      2.18902191090307      2.59354499591222
  H   3.22323682112679     -0.73785691611828      2.45149707032185
  H   2.94498713571461     -3.67224005449059      2.00337350040005
  H   2.28841464678207     -1.04872969591418      0.26034197454945
  H   0.48064963226064     -2.56492648866481     -1.33774194612360
  H   2.44293026557211      0.38946608848036     -0.98023716553002
  H   1.69119300816236      0.97770495951977     -3.73731232130854
  H   3.10373239137007      1.60623480263472     -2.81264466464252
  H   1.32049254902801      3.27934368507214     -3.63452355133627
  H   -0.50700657536711      1.57264525540429     -2.36637368200682
  H   0.40456406275021      1.19944602932435     -0.34185942887299
  H   0.04422812341122      3.30360546655599      1.70005274729027
  H   2.23285649448521      3.07382134322466      0.04919052390731
  H   4.25385093702910      2.76862642944370      2.13604790350838
  H   4.52954932368423      4.41674184645768      0.25749104494280
  H   5.87235031473021      3.22237640346006      0.24276935380378
  H   4.52048150960843      3.07893187246249     -0.93631533664790
  H   -0.21396327928776      0.38295252821863      2.57839150944506
  H   -1.61303255117965      1.19168892725876      1.83527914236481
  H   -1.62583795118531      2.95497018470086      3.51707430759509
  H   -2.92691932074053      0.83303190037205      3.89790122711369
  H   -1.53515594397881      0.13310060795936      4.78048382965070
  H   -2.39788069822661      1.55207570128503      5.45291559668651
  H   0.79273610155471      3.12772252499025      4.15249504700479
  H   -0.23015588693131      2.85531258723956      5.59164528509365
  H   0.73209751903839      1.50586097092059      4.89485229869582
  H   -3.22748720237382      3.85936868424212     -3.43737644680412
  H   -2.86840007971925      2.77951173365363     -2.04429071805719
  H   -1.90920347883788      1.06824149497660     -3.80652541883571
  H   -2.66476372072313      2.08423785800917     -5.04643918202002
  H   -4.92512414520142      1.73278350496700     -3.88156899079831
  H   -4.10194048689514      0.72258327095112     -2.67378298629685
  H   -3.35118565367049     -0.84925816778920     -4.53428845019233
  H   -4.22423467985241      0.15257121966372     -5.71032251392367
  H   -5.63042832438398     -1.75561002676455     -5.19945580517302
  H   -6.40349234916731     -0.33194058480969     -4.47665656944755
  H   -5.45785025126088     -0.97549785899306     -2.21165799584842
  H   -4.64283090545211     -2.36491864844492     -2.94945470111232
  H   -6.89206392843514     -3.31675450809568     -3.62692983075346
  H   -7.70441708592398     -1.91779519243738     -2.89956560222725
  H   -6.73251980420783     -2.52711750846831     -0.64141199621365
  H   -5.91642242055537     -3.92231136555281     -1.36743123908534
  H   -8.06348495692636     -4.63694593788538     -0.24407144202213
  H   -8.99827253098899     -3.51191449871461     -1.27682589895001
  H   -8.17432461777613     -4.91976775473771     -2.00827732789302
  H   1.54233699127208      4.47318983085556     -1.68337264485292
  H   -1.09956662338118     -0.20019903866586     -0.17808734337558
  H   -1.08680233227916     -1.81460360545098      0.57399799908526
  H   -3.07079939894090     -1.54423780216503     -0.94314263892228
  H   -1.97518050596765     -1.28194130532057     -2.34553567365114
  H   -1.99456281553915     -2.85969658434674     -1.50336128441867
  H   2.72605506926091     -2.71726555841928      4.33665647796110
  H   1.95583883634575     -5.02079762115505      3.77768326894426
  H   0.87346613548696     -4.27956539468877      5.00278105881183
  H   0.35916053630243     -4.38947150992781      3.27643113253413
  H   1.28663352754190     -0.69513362729717      3.79241849975553
  H   -0.06693143405805     -1.79832327456193      3.38701287259364
  H   0.55159486793143     -1.72407375654357      5.06298773489703
