115
Coordinates from ORCA-job 64
  O   6.42731622671290     -0.56585854902087     -0.52916461680706
  C   5.66798723923681      0.06273017585862      0.20501174317624
  C   5.70762480764138      1.60161804229455      0.24031455330320
  C   6.85571237770702      2.14266362025189      1.12342841383769
  C   6.16717193507837      2.42853279167037      2.46883757331117
  C   4.80704850457035      2.99970466959741      2.04715955423514
  N   4.50469953350478      2.22343233348453      0.82378892090442
  C   3.31120868770278      2.10004591283588      0.17706452636824
  O   3.20190278386780      1.38790117410566     -0.83719416814290
  N   4.77269145604276     -0.53518381026256      1.05153145023959
  C   4.55347147333705     -1.97111111628403      1.02765422640537
  C   3.62206830744587     -2.43693927578799     -0.11970954521973
  N   2.92959945220437     -1.45270326781725     -0.77191850296164
  C   2.18762734225465     -1.71588402594015     -2.00665941677510
  C   0.94760158084832     -2.60934357872974     -1.80071722832441
  N   0.50592179198393     -2.66209670063979     -0.50159264577331
  C   -0.67064456287084     -3.36959193203946     -0.05972838677836
  C   -1.31586295582584     -2.58573614549261      1.08707370335071
  C   -1.72126000488405     -1.10325598929952      0.73915858354694
  C   -1.55409096236766     -0.14029578729219      1.92053922571235
  N   -0.29697847892481     -0.14244813773082      2.47720061835037
  C   0.14074983814607      0.85763383974678      3.43671770503910
  C   1.23618209622656      1.77520557458925      2.84485394155883
  N   1.26694269430489      1.84190505217632      1.48545117971475
  C   2.08468522450030      2.81942820700293      0.76896469385909
  C   1.27170822810577      3.47015526352378     -0.35338459953297
  O   1.99320936226544      2.42179121672552      3.58237713433828
  C   0.56329577219930      0.26972759984246      4.79776667875744
  C   0.32198172090627      1.21470374506732      5.99304717004105
  C   -1.17682559214673      1.38907769869410      6.28060040609469
  C   1.06622559186286      0.70516117039198      7.23453305919609
  O   -2.45712023559658      0.60493756374210      2.29667981270172
  C   -1.06159669210257     -0.48357572710700     -0.51108600858554
  C   -1.73553644326001     -0.78082152150301     -1.82974435676792
  C   -2.74793643617274      0.34497202033618     -2.13945850171080
  C   -3.49807470571016      0.11916491011459     -3.45619694000437
  C   -4.48902227673707      1.24126530748450     -3.78656874029470
  C   -5.24168285097581      1.02854778516573     -5.10519135793594
  C   -6.23068602537041      2.15142742902984     -5.43894721607830
  C   -6.98337683019905      1.94195894752337     -6.75791925303508
  C   -7.97261130718382      3.06563440472253     -7.09305730755741
  C   -8.71939549637353      2.84842409692747     -8.41260616412884
  O   -0.16307981271418      0.35834279625285     -0.44261825658682
  O   -2.42751700152697     -3.32986691185179      1.53754619558533
  O   0.34346253391755     -3.12429669294985     -2.73807045443258
  C   3.06975292473289     -2.22291917745121     -3.16046139695810
  C   4.22219444222605     -1.27019225471925     -3.48411971660245
  O   3.47906307058508     -3.63829614971151     -0.36267544411595
  C   4.05029607497299     -2.45856539454731      2.41241796798040
  C   2.59213519688040     -2.03975105536037      2.65602959417663
  C   4.24008691971678     -3.96799853062153      2.60353371650615
  H   5.81320822200159      1.89602972086194     -0.82291452101446
  H   7.24939271431431      3.08251621020581      0.68429777719262
  H   7.69520547903595      1.42441520832107      1.18330354939595
  H   6.02174784809351      1.48435617577224      3.03497095507464
  H   6.73517166026241      3.12394891859012      3.11639507624896
  H   4.00417782171212      2.87358875111944      2.80124566552044
  H   4.89370863264334      4.08265119152956      1.80171680452339
  H   4.14334102014973      0.06578077766554      1.58941021558851
  H   5.53322389441365     -2.44001423080349      0.80209811278956
  H   3.18334304776827     -0.46026877745746     -0.63002749430180
  H   1.76492860426872     -0.72501671259564     -2.28792947567178
  H   1.16118690672917     -2.29373296019359      0.19276269954845
  H   -0.43816476140644     -4.39172697374872      0.31289386760654
  H   -1.34984166294972     -3.48825381302069     -0.92647884641972
  H   -0.54397398049478     -2.52751679773259      1.89484551657445
  H   -2.80686900777916     -1.14273422419548      0.51920964012398
  H   0.41331573988405     -0.76140181435178      2.08171319691006
  H   -0.75601417511862      1.50122177929634      3.57999190674035
  H   0.64705439020913      1.24127398708908      0.90651702364374
  H   2.40001201273565      3.57081623130009      1.51788711471942
  H   0.37011471494758      3.95713994546970      0.06579289680128
  H   1.87647683622917      4.23308585236121     -0.88228659820987
  H   0.96464699096688      2.69908437757646     -1.08563884251246
  H   1.63828226368316     -0.00352263508139      4.75851410043173
  H   -0.00765555116773     -0.67150860689766      4.95379902116412
  H   0.75435634653871      2.19863519167006      5.71149172325383
  H   -1.74630718486385      1.72042546546797      5.38779556957771
  H   -1.62728126720506      0.43106120686157      6.62004249856891
  H   -1.34655957030546      2.14011032346072      7.07882949079161
  H   2.15884354256772      0.64023707024909      7.05239332009691
  H   0.90778958038506      1.37556500453134      8.10399383038199
  H   0.71089329156249     -0.30735974847641      7.52605683168963
  H   -2.25821224607242     -1.75720916355601     -1.80027325817892
  H   -0.96988152238531     -0.83184949063502     -2.62841552755843
  H   -2.19900038497864      1.31044053450345     -2.17333780577846
  H   -3.47690988376145      0.43676972428214     -1.30318821976868
  H   -4.03811565575099     -0.85334744099631     -3.41218053063141
  H   -2.76145360120463      0.01553992726980     -4.28413336168095
  H   -3.94526962191382      2.21251562571774     -3.82454982470191
  H   -5.22260302459690      1.34242193081622     -2.95456804122835
  H   -5.78542911302331      0.05721704197601     -5.06629517473382
  H   -4.50676474187373      0.92522057173862     -5.93572004676036
  H   -5.68577213148762      3.12239454865841     -5.47598744197857
  H   -6.96519388516204      2.25408437272949     -4.60766983091307
  H   -7.52824798821555      0.97077934465505     -6.72088179317419
  H   -6.24840533783946      1.83865990488623     -7.58892931203016
  H   -7.42505541640905      4.03441730318472     -7.12728249195697
  H   -8.70456279460095      3.16672561942803     -6.26026047813990
  H   -9.42611867159385      3.67586702972360     -8.62705571015894
  H   -8.01466715437142      2.78037771610855     -9.26820157509339
  H   -9.30492239860539      1.90495581064250     -8.39390271548710
  H   -2.76687095038103     -2.90799458524956      2.34914777662896
  H   2.40063846837205     -2.36434141042911     -4.03288150859707
  H   3.45278642233448     -3.22746084217806     -2.88902316648874
  H   4.79558335048929     -1.62970960670601     -4.36200407199129
  H   3.85263764396984     -0.24864345869808     -3.71456187238872
  H   4.93428781034049     -1.18026147947300     -2.63848079633088
  H   4.68741602798426     -1.92694254266481      3.15419105699877
  H   2.42515947788529     -0.96552586644539      2.42629094758278
  H   1.91009960061507     -2.64694038573795      2.02260840029809
  H   2.29077971954264     -2.20319016011661      3.70901625387673
  H   5.30985808859192     -4.24553462300972      2.51788308719696
  H   3.88298924009770     -4.28378226448382      3.60517092933383
  H   3.68854975344743     -4.52979139778432      1.82519135382479
