115
Coordinates from ORCA-job 65
  O   5.59246614762973      0.10875386472913     -0.30889863351025
  C   5.33670719585588      0.12855732617962      0.89572888507198
  C   4.39514225412327      1.19273960200171      1.49323688185345
  C   5.00501314651856      2.60020377195750      1.33769539001814
  C   5.85282619793996      2.73556792799312      2.61337165116884
  C   4.98263785468462      2.07150632825318      3.69201775223686
  N   4.18630954707631      1.07924578875106      2.94135909418521
  C   3.24635119939352      0.33492115272997      3.63146781291939
  O   3.22789902957527      0.34858317841699      4.86084757274800
  N   5.84791722534248     -0.77945980889768      1.78348969033809
  C   6.85341644054611     -1.75191032151152      1.37798950274863
  C   6.34556371782793     -2.68817889164144      0.25779330251038
  N   5.00112303906675     -2.95366143914531      0.30038122540172
  C   4.27030315339281     -3.37221181796010     -0.88094061135691
  C   3.10785794478918     -2.38252709708255     -1.02796365128507
  N   2.59432728777764     -2.17410876378981     -2.26214700209693
  C   1.45252483298172     -1.28479097266312     -2.41736434178664
  C   0.11690615213850     -1.99516386572858     -2.10147906590514
  C   -1.04456676730323     -1.06428749688875     -1.65482382658456
  C   -0.79977711829427     -0.29684298693450     -0.32915070420522
  N   -0.02457437073986      0.83536801622734     -0.43740468965058
  C   0.15713404704617      1.78880554055357      0.66318575668281
  C   0.89376092012247      1.21982162574007      1.90567904174036
  N   1.62565621741729      0.09279989233061      1.71551126437078
  C   2.30850710464572     -0.58722711922555      2.81511373789402
  C   1.32343679855723     -1.30593751998876      3.73985114209599
  O   0.86730885763313      1.84255527251031      2.96918367252925
  C   -1.15457308253611      2.46734981455614      1.09047034099719
  C   -1.84056040363158      3.29980986602804     -0.00596119734305
  C   -3.21647884975798      3.77732789798320      0.48026212544374
  C   -0.98291998547915      4.48338547114133     -0.47743781499060
  O   -1.25788518316089     -0.69093411235995      0.73864742910908
  C   -1.51920734144723     -0.12104045253237     -2.75764368431392
  C   -2.86368778040834      0.54250951835767     -2.53938662602077
  C   -3.08783351773244      1.80471660038260     -3.37533344708374
  C   -4.43194139320666      2.49301826204983     -3.10215780419755
  C   -5.66723887793678      1.66684295508366     -3.48165418392972
  C   -6.99005490640543      2.40366303359874     -3.24067132950333
  C   -8.23165731966355      1.58337382178148     -3.60854072467637
  C   -9.55415320742441      2.31915473620821     -3.36410855035540
  C   -10.79762470849330      1.49929401595178     -3.73171697386578
  C   -12.11384936842384      2.24203905169775     -3.48295173046737
  O   -0.85154293619465      0.07015150296713     -3.77411127084432
  O   -0.29234539704992     -2.81129506281030     -3.18792621915346
  O   2.64126879632159     -1.81208301091431     -0.02545935637952
  C   3.73872643471621     -4.82199273300186     -0.78868215758697
  C   4.86113582662272     -5.84262368295978     -0.59896262917198
  O   7.11471923013948     -3.17260597842848     -0.56798307372896
  C   7.39225789358499     -2.54107937092048      2.59634475374401
  C   6.28925685955564     -3.30593427537628      3.34507734496413
  C   8.18817390143569     -1.62476828484262      3.53883529809650
  H   3.44288457873323      1.08813820583534      0.94323820972476
  H   4.18816049172982      3.35117159936114      1.33101370207911
  H   5.57519242279964      2.69229338156393      0.39405331788268
  H   6.80810069471329      2.18239674302066      2.49149643644589
  H   6.10634571332791      3.78370338404837      2.86410703020569
  H   5.56376081345583      1.58154294517911      4.49944978652227
  H   4.29318619727801      2.78878213040107      4.18787829001705
  H   5.63122984389705     -0.63474078797474      2.77369620497942
  H   7.70284572044804     -1.22273012950382      0.89440912229884
  H   4.43540663040258     -2.37277561756060      0.93172388881451
  H   4.96697207249854     -3.29537525936332     -1.74468896796276
  H   2.95601103779687     -2.69476898957674     -3.06165638739242
  H   1.42921925855442     -0.88170040748063     -3.44636694777998
  H   1.61513011060458     -0.44263988909477     -1.71934526830216
  H   0.30360934598575     -2.68438233866950     -1.25218359949811
  H   -1.89453255214337     -1.72993977851219     -1.40187958942252
  H   0.23866661839708      1.14626356244125     -1.37493360922321
  H   0.84977442394486      2.56294305855988      0.26816068498658
  H   1.60476006857311     -0.42340198485506      0.82770416304988
  H   2.95837504621686     -1.33467412197425      2.31438775404943
  H   0.68196020291652     -1.98210216779169      3.14272281824698
  H   1.86459229961121     -1.88642244627273      4.51023225074195
  H   0.68785651400340     -0.56268903607560      4.25619003792992
  H   -0.91260688650814      3.10101941118733      1.96820158871653
  H   -1.84100743541588      1.67580911697293      1.45492837865122
  H   -2.00880863309758      2.63557870735565     -0.88355826361128
  H   -3.86445789958953      2.92207523592168      0.76223176120224
  H   -3.11447708100738      4.42589031961599      1.37625365953570
  H   -3.74331566370505      4.36369694476163     -0.30029065734315
  H   -0.00986102120733      4.16130299289514     -0.90394154845965
  H   -1.50385380107095      5.06716234299765     -1.26376149907322
  H   -0.76364103190709      5.17322057054062      0.36527363503932
  H   -3.00668407457839      0.73492497394778     -1.45293912515277
  H   -3.62114276370675     -0.23908304772630     -2.78311103609396
  H   -2.99344805911856      1.54533755194563     -4.45071738754490
  H   -2.25954208144224      2.51629841556332     -3.16870759867597
  H   -4.45750449804369      3.45558360091782     -3.65833989353414
  H   -4.49083982019592      2.76817004648216     -2.02515548306098
  H   -5.68050312702456      0.71336188328196     -2.90668429051934
  H   -5.59697274348001      1.37042779865088     -4.55329795500422
  H   -6.99136890069127      3.35569324412597     -3.81887476117143
  H   -7.05097576675866      2.70541683375211     -2.17020912850744
  H   -8.22798440748753      0.63101696499257     -3.03044748613169
  H   -8.16979510469614      1.28199298687220     -4.67922795887681
  H   -9.55761919292408      3.27210613416416     -3.94145311166950
  H   -9.61523678690155      2.62031188380217     -2.29314936414458
  H   -10.78958574120417      0.54727664003687     -3.15461802582460
  H   -10.73269520437004      1.19938794644886     -4.80191574970541
  H   -12.99324657326448      1.62475119781684     -3.75788241824376
  H   -12.22293991228544      2.52192801836565     -2.41383990235804
  H   -12.16561133796888      3.18021814893300     -4.07494129568609
  H   -0.44202118106115     -2.19408227913336     -3.93358456058392
  H   3.15770602390052     -5.04437941156252     -1.71047646796306
  H   3.01679012460902     -4.87207422463739      0.05530889646072
  H   4.45655447764273     -6.87269026548136     -0.53778051153665
  H   5.59032298791587     -5.80041589315186     -1.43257157049507
  H   5.42327100671596     -5.63748653732782      0.33361067763288
  H   8.09540183772093     -3.28178481236109      2.15788739136277
  H   5.72087405779742     -3.97218340794162      2.66682414412361
  H   6.72624481422497     -3.92782117386531      4.15172986468144
  H   5.56278788578625     -2.61759170493089      3.82857237750493
  H   9.00026522718913     -1.09658207958830      2.99945023261676
  H   7.54026087515420     -0.85442311982689      4.00948340834891
  H   8.64626711914125     -2.20828478107666      4.36262233782636
