115
Coordinates from ORCA-job 66
  O   2.26765580761661     -2.69763897265355      3.49051647823900
  C   1.45444796209901     -1.84742522277814      3.13514678369134
  C   0.98351276968365     -0.75713448104922      4.12472056185487
  C   0.02040332145915     -1.29119883893640      5.19992184625537
  C   -1.35919960738623     -1.07287187854341      4.55941184803460
  C   -1.21043164962528      0.27300902540373      3.83123889232814
  N   0.21577464479248      0.30797315965756      3.46952980298043
  C   0.87658395211339      1.18561735038030      2.63868267153598
  O   2.10000447274253      1.14469569484407      2.50680909736585
  N   0.91737163975064     -1.79340470068238      1.86904327423586
  C   1.64903906750745     -2.37975422044820      0.75934737798846
  C   1.98428475931784     -1.24757741668037     -0.22403678979051
  N   3.14231053181840     -1.42207489461379     -0.90240822875042
  C   3.56341144218967     -0.58513166075113     -2.00886200887143
  C   2.72412980909293     -0.94758867366898     -3.26869549795301
  N   2.96108845200554     -0.15115642628329     -4.35358568734233
  C   1.98776372988062     -0.03444087203361     -5.42881490699807
  C   1.26452897869430      1.34014572292350     -5.41174466988129
  C   0.80185395134606      1.69157096187838     -3.95366185944554
  C   1.88082692949750      2.42441104029540     -3.14535303757063
  N   1.47272343211214      2.90514499628826     -1.95428957803485
  C   2.37393199313414      3.43708805575333     -0.92963060076195
  C   1.61724423600266      3.47327726397154      0.42478722856097
  N   0.71306855261125      2.44297460810733      0.56107297898100
  C   -0.01080617656023      2.12403440415385      1.78473672331775
  C   -0.53712427980422      3.34091160023049      2.55843661401067
  O   1.79229631778928      4.38565150347281      1.22539850339261
  C   2.97011617882305      4.80576048899158     -1.29359036341741
  C   4.29290252202480      5.12637011089471     -0.56853287967224
  C   4.66920954605327      6.59704748938327     -0.79584966144654
  C   5.43243293753157      4.19617673279750     -1.01413518353403
  O   3.07417434080807      2.51146472923735     -3.51578143865251
  C   -0.52971083120612      2.46351996242417     -3.98286589586339
  C   -1.74700832060904      1.63660502124173     -3.59682888819647
  C   -1.70155662159247      1.26633361900737     -2.09829162533631
  C   -2.73895451480461      0.21583327536508     -1.69050728223083
  C   -2.60636623915844     -0.21445385675921     -0.22487182008211
  C   -3.40970088264717     -1.47459896205183      0.11650236979017
  C   -3.11286480072384     -2.03566676836855      1.51118175716418
  C   -3.68114599691216     -3.43909363407850      1.74686197442630
  C   -3.33383177430584     -4.03314033235416      3.11729453998904
  C   -3.88366524557843     -5.44683121725466      3.32676404832007
  O   -0.58125294868027      3.64853156109069     -4.26753861518659
  O   2.01313657904486      2.36987274233641     -6.00586748142281
  O   1.88774049338101     -1.85364558323456     -3.24907386454401
  C   5.09751518873764     -0.68289296735972     -2.15913140572950
  C   5.75439496159359      0.34592941844193     -3.08496810960585
  O   1.24355815373162     -0.25702638412039     -0.36728667139716
  C   0.93036578471586     -3.56912255171382      0.05379934308441
  C   -0.23371641268045     -3.12439526283608     -0.83753908979462
  C   0.49790452349404     -4.60169261334777      1.10267336584445
  H   1.92271613615371     -0.35281125026942      4.55063106198187
  H   0.12686546786711     -0.68912155910746      6.12587600128281
  H   0.23789173498803     -2.34614600375240      5.45253628529580
  H   -1.56252332687032     -1.87495866702776      3.82374883044443
  H   -2.19382404376941     -1.06794339171690      5.28680178990155
  H   -1.86173864758742      0.34489141566200      2.93519267646326
  H   -1.46657111748534      1.12344903944268      4.50164832798010
  H   0.38433684817985     -0.95268743794142      1.62530721683236
  H   2.58667064233146     -2.77846023738387      1.20360011737211
  H   3.61762600642855     -2.31997026294787     -0.78998631366715
  H   3.29651866690969      0.46043156985300     -1.74329589563688
  H   3.50139572001498      0.70650411652782     -4.17646589465088
  H   1.26418780220681     -0.86360320355738     -5.29587448416048
  H   2.47349118238562     -0.14491971313247     -6.42050078174373
  H   0.35503383896676      1.21680899109661     -6.04163527989886
  H   0.63440937030390      0.73367901152296     -3.41559140239049
  H   0.47881045576529      2.86058676288924     -1.71559017106491
  H   3.20323868587155      2.70077190829364     -0.81823874500398
  H   0.93841114697548      1.59162934910127      0.01803004134811
  H   -0.88768939717446      1.52188111213819      1.45894006753932
  H   -1.11614200602500      3.99840589606257      1.88049397049372
  H   -1.21281711678126      3.00919339038165      3.37061781678107
  H   0.29253489007270      3.93288415176411      2.97983572751960
  H   2.21797166629229      5.58781068692743     -1.06348857072325
  H   3.14705088016137      4.81837999606681     -2.38870926093337
  H   4.11585733420933      4.98098156405701      0.51858268522492
  H   3.87527270455429      7.27715956803583     -0.42502803941964
  H   5.61188159788019      6.85872275573344     -0.27257226669794
  H   4.81636152464254      6.80774626655706     -1.87744980282614
  H   5.20748089008474      3.12677844193420     -0.82096687800712
  H   5.62981653768626      4.30193152442464     -2.10222472311958
  H   6.37173995908093      4.43127770306304     -0.47292218253388
  H   -1.74761026005235      0.69824175084856     -4.19600395892296
  H   -2.66125639266605      2.21140410621925     -3.84318472857480
  H   -1.82753786527755      2.18724750309455     -1.48568275072731
  H   -0.70020299303903      0.85559583658333     -1.84005913504348
  H   -2.59926436598868     -0.68009108586128     -2.33627353419665
  H   -3.76804564287201      0.58439365517837     -1.89746403103813
  H   -2.90187642753405      0.62374514760613      0.44707218125917
  H   -1.52889721135728     -0.40779431761209     -0.01895482198575
  H   -3.17055080264044     -2.25653178827410     -0.63863353583897
  H   -4.49948874698021     -1.27817522475593      0.00687703325001
  H   -3.49749738639418     -1.33722363251931      2.28859754185014
  H   -2.00804930964644     -2.06895657512204      1.65438059062461
  H   -3.29788729666073     -4.11704976155809      0.95045128889689
  H   -4.78737034711972     -3.42057638008034      1.61856509484567
  H   -3.71317710786526     -3.35928069213821      3.91779628301895
  H   -2.22628987954520     -4.04533952558494      3.23426542119419
  H   -3.61275805751004     -5.84990275126672      4.32362680282941
  H   -4.99106608176712     -5.46460857719195      3.24744558442181
  H   -3.48708243890580     -6.14847959467295      2.56316339558016
  H   2.68716600438468      2.62851015357545     -5.33300868281914
  H   5.36012966971694     -1.71453347724853     -2.48448204979519
  H   5.50967734152578     -0.56207639768678     -1.13478277494705
  H   6.85439477361279      0.32899592195485     -2.95495615005298
  H   5.54781535891131      0.13796374620132     -4.15275682882650
  H   5.40113052751524      1.37329181789639     -2.86094335374300
  H   1.69950309215271     -4.03289866320712     -0.60440824059915
  H   0.11804939944654     -2.49901970070080     -1.68082814208818
  H   -0.75319537930007     -4.00749611617859     -1.26181647182868
  H   -0.97797927762676     -2.55109801902055     -0.25249185761721
  H   1.33381620418309     -4.88359904641780      1.77316588312292
  H   -0.30908354373622     -4.18629155838592      1.74121603903928
  H   0.10775674779389     -5.51693239434306      0.61372104484999
