115
Coordinates from ORCA-job 68
  O   4.28678635076308     -0.06037001211464     -2.38217824038605
  C   3.18216098857963      0.46562903220799     -2.23861729306768
  C   3.01535141774548      2.00294932833499     -2.08873569303094
  C   4.33153021539466      2.73968793325727     -2.35080322442082
  C   5.03957593976452      2.66383372407888     -0.98673702467149
  C   3.90121223088918      2.85180029970270      0.03142039737166
  N   2.70501714272108      2.36777371252493     -0.68803707111419
  C   1.43365036721481      2.34749191629363     -0.22209411895758
  O   0.47696645928012      1.90057909820522     -0.88768377556122
  N   2.00687773696017     -0.22248685864697     -2.20220775883922
  C   1.96829693621444     -1.68693791641917     -2.17568210512336
  C   2.62769378555449     -2.21854812523345     -0.86069713676401
  N   2.09306285605005     -1.62840537027181      0.25578049967773
  C   2.41979822705917     -2.02222946638383      1.61862143223302
  C   1.33269089868423     -3.00369634984839      2.13799440925758
  N   0.15823367185636     -2.37468507770817      2.48243919437484
  C   -1.05503841359606     -3.05363152683738      2.86932211896541
  C   -2.18342806836644     -3.06109778165303      1.82155631563678
  C   -2.55644201442909     -1.63858491537081      1.22173617803495
  C   -2.61124673590881     -0.59014599918648      2.36040114768593
  N   -1.50566535828823      0.20303537086386      2.44314765500159
  C   -1.22004663868265      1.14897509409368      3.51798741726984
  C   -0.01050212140759      2.00770957372307      3.08176439328421
  N   0.03815799470628      2.31250364787392      1.74669579995692
  C   1.18631815726623      2.97705954548429      1.15802579314912
  C   0.96544476922484      4.49651483639736      1.01943150406440
  O   0.86578098205488      2.36918589006087      3.86926398204194
  C   -0.95663038277259      0.42295611047316      4.84965501653615
  C   -1.00233631444776      1.29670844094958      6.11829343558660
  C   -2.39352514110950      1.90614060306793      6.34929918379556
  C   -0.56234234906110      0.46014823225168      7.32838152263029
  O   -3.56425648157137     -0.56280570094489      3.13710932540990
  C   -1.67010703585064     -1.32878418689631      0.02103683198149
  C   -2.08814168745589     -1.78067223172001     -1.36234038886758
  C   -2.00949437754517     -0.60685566977183     -2.36010454642279
  C   -1.87214647329010     -1.02843328399983     -3.82513942074033
  C   -1.70574894222914      0.16291589392194     -4.78371068024102
  C   -0.49962037041896      1.05483035098830     -4.45764980224986
  C   -0.18625596214500      2.11378417638331     -5.51936105057289
  C   1.05045408088410      2.94656090300771     -5.16463167736362
  C   1.42162840535403      4.02610102624427     -6.18700053709266
  C   2.66564567017514      4.82524448885343     -5.78622751024570
  O   -0.61306068947990     -0.69432335564481      0.12717962789764
  O   -1.82190938307932     -3.95852086826788      0.78297190830926
  O   1.49127242026158     -4.21766012569637      2.18282594802259
  C   2.61101880315379     -0.76302375713364      2.48375976629613
  C   2.89324246208787     -1.03049528786471      3.96213416730143
  O   3.51831466682802     -3.05994272191179     -0.83459286554336
  C   2.56396551166948     -2.38927210586058     -3.41795228292444
  C   2.06310982665275     -3.84095180018737     -3.46747624454574
  C   2.24734869474881     -1.65538617376037     -4.72503323917433
  H   2.17667427351499      2.33785454815657     -2.72949185339318
  H   4.12100185170002      3.78945621036496     -2.64239015332666
  H   4.91196207007318      2.25092662718513     -3.15426253053834
  H   5.48631643459572      1.65655531737666     -0.87788183469909
  H   5.83897969385751      3.41866405239179     -0.85832430035000
  H   4.06209102579830      2.27575228268217      0.96548478978751
  H   3.77468987622300      3.92049877960390      0.30943469692302
  H   1.16724101007126      0.31970000102406     -1.94635298298578
  H   0.88748211841399     -1.94191635936725     -2.11310760563653
  H   1.26001659726320     -1.04379835687701      0.12674763032682
  H   3.35129492637154     -2.61894383558507      1.56307700678106
  H   0.14584677662030     -1.35600783284870      2.50593053014698
  H   -1.45330116845937     -2.61115150721602      3.80599535174227
  H   -0.78767063013463     -4.11172620131898      3.06622985435582
  H   -3.09504454847689     -3.40620704261600      2.36073816381695
  H   -3.59832494836296     -1.72991256433188      0.85299955455413
  H   -0.82946709714693      0.08056551608067      1.66843430444018
  H   -2.10080708111484      1.82032309010505      3.63714905313550
  H   -0.66953632375750      1.98799294604469      1.07899242181762
  H   2.03760254724099      2.79691174903992      1.84477427765150
  H   0.77518239740863      4.93452599477126      2.01814338393830
  H   1.85200133738528      4.99712615744664      0.58130371990693
  H   0.09462201128286      4.69711980208485      0.36409544346239
  H   0.03123848969755     -0.07973693175361      4.78053870213375
  H   -1.73066984981395     -0.36887826476166      4.93991265407920
  H   -0.26849908111661      2.11793133505051      5.97944575117395
  H   -2.70410771665690      2.57984938259041      5.52422578544263
  H   -3.16772983583872      1.11438336738244      6.43940707148530
  H   -2.41227154022828      2.50694952906328      7.28158044374689
  H   0.45905327269447      0.05063790055918      7.18665759667809
  H   -0.55828176757845      1.06566898763703      8.25778602751905
  H   -1.24981256231484     -0.39830948446430      7.49097393217267
  H   -3.08675108748108     -2.26118631678294     -1.35542778674446
  H   -1.35162718231367     -2.56694357635846     -1.64451407879437
  H   -1.13836720091856      0.01277315056375     -2.06821053056844
  H   -2.90060407513374      0.04690949629897     -2.23290408647570
  H   -2.74865427393227     -1.63992625698308     -4.13278944601756
  H   -0.98544068093429     -1.69632611282782     -3.91894386037490
  H   -2.63559003287536      0.77615057705953     -4.78436724143224
  H   -1.60179736444714     -0.22747470215342     -5.82010319485017
  H   0.39716398401374      0.41301208973731     -4.31989042326886
  H   -0.64795583888147      1.56308960822946     -3.48002830710123
  H   -1.06389435423506      2.78612615279592     -5.65530171136832
  H   -0.02867776241721      1.61936117958165     -6.50485519783085
  H   1.91803574342983      2.26023915585601     -5.03182881513560
  H   0.88995335101430      3.42547748039190     -4.17099089890368
  H   0.55838339401083      4.71537525579685     -6.32348780984850
  H   1.58460510893607      3.54947460662982     -7.17940674706536
  H   2.92245421548255      5.59862191316606     -6.53828181281433
  H   2.51510421150594      5.34180215985576     -4.81422472226611
  H   3.54953224563664      4.16234712340295     -5.67272654150419
  H   -2.63053823177360     -4.22145164990993      0.30654061347442
  H   1.71232803434778     -0.10960531153719      2.38386680750717
  H   3.43554991562204     -0.17511498592652      2.02686081780726
  H   2.98588999244417     -0.07843773217189      4.52062585655469
  H   2.07559139944157     -1.61585503718140      4.43052108860878
  H   3.83130700251529     -1.60709951523853      4.09470564720171
  H   3.66237288400289     -2.39997557885679     -3.27007924293014
  H   2.31894070695016     -4.38314161985783     -2.53774991410355
  H   0.95956390989887     -3.87592945752519     -3.60876953472354
  H   2.52360579926392     -4.38619078150827     -4.31623840500675
  H   2.64191414276989     -0.62077095265963     -4.72966989952056
  H   2.70400944136263     -2.19122326280685     -5.58173098436167
  H   1.15344731481833     -1.60555485449046     -4.91300780828401
