115
Coordinates from ORCA-job 72
  O   3.70679553889108      1.99507271682816     -2.40121719797677
  C   2.88099061081974      1.83086467314419     -1.50313400034524
  C   1.48970699720566      2.50885591019962     -1.61747858729399
  C   1.66921290121426      3.97602617408052     -2.02798433929366
  C   1.97954818225553      4.65083832844406     -0.67985226774231
  C   1.09823545403801      3.89376558221309      0.33963254312963
  N   0.79785533736978      2.61405305979678     -0.32902697194120
  C   -0.09139041121234      1.66030065217055      0.07139233485843
  O   -0.41003035796132      0.70061540637459     -0.63448855703355
  N   3.12516351949621      1.11428551969673     -0.36223444422761
  C   4.45393017473900      0.57487123058119     -0.12019739433628
  C   4.58080160896445     -0.95455116642800     -0.20938968373390
  N   3.47356858576021     -1.70335326811628      0.09773954774714
  C   3.49168121286988     -3.13806432260861     -0.15093312297030
  C   2.30349071658877     -3.48186734449991     -1.05538126984642
  N   1.37518177482551     -4.35806924108663     -0.57477211607178
  C   0.26801883547205     -4.80084163703643     -1.41097466292758
  C   -0.87258161145737     -3.76548843412387     -1.61433386131528
  C   -1.99449121153080     -3.76998775682398     -0.54872785830362
  C   -1.67313913494762     -3.32515146269907      0.87790687277331
  N   -0.53936545661557     -2.56943685191878      1.04414173113789
  C   -0.26956700209661     -1.89407941753701      2.31446312059598
  C   0.13484266010032     -0.46078347431543      1.96721959350872
  N   -0.83992834359678      0.47677189777594      2.06332591886336
  C   -0.63729763979792      1.81281217670012      1.51950033836634
  C   -1.94017782706381      2.61297764190439      1.59304480790347
  O   1.28774946271667     -0.18065475515792      1.58998008779784
  C   0.82324186535116     -2.53930994379215      3.18308983627717
  C   0.57204474980004     -3.98812833784987      3.63629652412058
  C   1.79170782764189     -4.50779280541422      4.41425487166539
  C   -0.70845379141001     -4.13174129903887      4.47271528247264
  O   -2.44372011242821     -3.60842083040081      1.80004657586746
  C   -3.18276744783218     -2.95125202413368     -1.13493871418953
  C   -3.31679987950536     -1.47997651505960     -0.78195589749950
  C   -3.14530301167019     -0.58921843990851     -2.02764896626029
  C   -3.34234391369134      0.89304843377002     -1.69815549859747
  C   -2.76697022843325      1.85108321676034     -2.74725746113066
  C   -2.64517099443638      3.29099482657524     -2.23754651686006
  C   -2.01090373545526      4.26503016825991     -3.23449092862958
  C   -1.73253687274374      5.64983613639285     -2.63928485369723
  C   -1.02058906887493      6.61404039549129     -3.59569871705797
  C   -0.70228280745054      7.97266494758143     -2.96511792702853
  O   -3.93071789594671     -3.49325917856396     -1.93189468174800
  O   -0.36824291050607     -2.44199820275019     -1.72179436039354
  O   2.19546091108993     -2.96536385183511     -2.18073313007336
  C   3.65242940237942     -4.00702209777673      1.10806081990079
  C   4.85879872891138     -3.61083281183185      1.96106997437583
  O   5.65997074527505     -1.46019498051527     -0.52337910067055
  C   5.10030270304707      1.11378945276147      1.18615374544220
  C   4.37666975390150      0.64147559618783      2.45458843497965
  C   5.21181035938990      2.64268696771692      1.13584333267702
  H   0.87355567357538      1.91107960363939     -2.31767128466307
  H   0.72561267227973      4.36128476444980     -2.46021303671146
  H   2.47844535676799      4.08065370155194     -2.77298701486583
  H   3.05106519182460      4.51118531461268     -0.43012300267908
  H   1.77559073107343      5.73899120533464     -0.67363592697946
  H   1.62168115696164      3.73754502068642      1.30766402339957
  H   0.15652821407400      4.44411698126805      0.54934225615155
  H   2.38381150320234      0.99492806738431      0.34045983105462
  H   5.06264573166361      0.93217336248799     -0.97504184904049
  H   2.61133680051217     -1.24214207702704      0.41947952400200
  H   4.39596371593094     -3.28639239058142     -0.78268653357422
  H   1.41995655082980     -4.64614965670297      0.40348215825655
  H   -0.14153250088584     -5.74390383127276     -0.99930303068381
  H   0.69407346394361     -5.02471404700116     -2.41074363117261
  H   -1.38300252878321     -4.07404865100000     -2.55889217611771
  H   -2.38672358058929     -4.80292671481810     -0.47193068582828
  H   -0.11778018634677     -2.22094770220588      0.16196004951214
  H   -1.22992007679779     -1.89866312119962      2.87261585782162
  H   -1.79449215848120      0.15785260738594      2.24238346153161
  H   0.14219432235479      2.31440616537127      2.13098882641206
  H   -2.29128158844608      2.69173212891572      2.64167524281862
  H   -1.79681034059163      3.63836244617380      1.20340532991299
  H   -2.73021580225239      2.13266327046991      0.98234752533987
  H   0.94963339476561     -1.89923181063700      4.08529626456341
  H   1.78246157959741     -2.46424818876388      2.63067032582139
  H   0.45003539210097     -4.61188418063422      2.71841047948417
  H   2.73125669114995     -4.41748030826614      3.83325953560077
  H   1.92837988683667     -3.93057464085732      5.35355622626303
  H   1.66473871034910     -5.57321420629537      4.69426595623117
  H   -1.60941276693669     -3.88304462615895      3.87930179844992
  H   -0.82362456572774     -5.17359829555759      4.83564493596791
  H   -0.66569206174087     -3.47232042761241      5.36696107291480
  H   -2.56587787940408     -1.17894069066661     -0.02541029189895
  H   -4.32975972619108     -1.33683208114607     -0.34526457868378
  H   -3.84735906307557     -0.92847714268234     -2.81809324057426
  H   -2.11457871703246     -0.74561076479959     -2.40626991931348
  H   -2.81290262318603      1.09029697013076     -0.74369262144072
  H   -4.41867598011375      1.11413959912088     -1.51586244522138
  H   -3.37619396104894      1.82336533194882     -3.67849861372108
  H   -1.75378644289719      1.48951995333135     -3.02925848647988
  H   -2.02410340321835      3.28229099895960     -1.31295830026274
  H   -3.64350103308712      3.67256140436696     -1.92309560456943
  H   -2.65984743594676      4.36618767446119     -4.13306299871958
  H   -1.05670035970658      3.82757790556602     -3.60827546805578
  H   -1.11445294924008      5.52948274857038     -1.71801427248520
  H   -2.68768773500088      6.10585185735401     -2.29247754712445
  H   -1.64725053576234      6.75620369392217     -4.50412382514702
  H   -0.07985313096427      6.13980158248400     -3.95599709047323
  H   -0.18807529928615      8.64830234184334     -3.67832476405199
  H   -1.62550341589569      8.48637543443304     -2.62314855435917
  H   -0.04216881284574      7.85906959747202     -2.07874973757989
  H   0.52281684705298     -2.49128337396531     -2.17243929672914
  H   3.74745487297412     -5.06555022772676      0.78232660822096
  H   2.73248108976686     -3.94901287787408      1.72972679847640
  H   4.99352209133060     -4.30691426591975      2.81288454335782
  H   5.78815726976573     -3.60245552493523      1.35900322410695
  H   4.73081755190148     -2.58995233258900      2.37324547478376
  H   6.12520289418477      0.68325608939151      1.18732916190552
  H   4.33358457250811     -0.46429619158812      2.51338551278328
  H   4.89642829408719      1.00957878711466      3.36246441515346
  H   3.33027609988235      1.00840733645530      2.49185903871121
  H   5.74309128055444      2.98245266997997      0.22417443506532
  H   4.20336289994194      3.10791391510750      1.12867270414679
  H   5.75429520428767      3.03275915855485      2.02076002572082
