115
Coordinates from ORCA-job 73
  O   5.12447105954472      1.11366121958479      0.66072295379310
  C   4.56376024413388      0.68141679065750      1.66368290329978
  C   3.17238180596443      1.20289878872110      2.09794760689202
  C   3.12144024218459      2.73442902700075      2.04511836610542
  C   3.71336669629572      3.12219930817469      3.41206450193172
  C   3.15931852131253      2.05689512878211      4.37700765961952
  N   2.83156938754539      0.91141469248330      3.50043674270573
  C   2.16321697147740     -0.16312784331975      4.03709141468344
  O   1.94707531487026     -0.23776875313309      5.24821908523021
  N   5.04935599241267     -0.36088394064574      2.40907539101040
  C   6.17041556342181     -1.17339079437572      1.96130593230442
  C   5.82127244097337     -1.99448460057395      0.69271854341845
  N   4.48243566456880     -2.12824144810226      0.44653999730991
  C   3.95931848621312     -2.55152785977300     -0.83332461182817
  C   2.95926358652972     -1.47164103171304     -1.28862131399981
  N   2.64107256380450     -1.49288860682996     -2.61052710042092
  C   1.46813811209092     -0.81064224673886     -3.13052332014858
  C   0.30827610206626     -1.80216177165355     -3.30041108790754
  C   -1.08321960800404     -1.12504728674851     -3.33299883708487
  C   -1.32261881488518     -0.33037317181579     -2.03073478533892
  N   -1.16873253574337     -1.04833576328414     -0.88475013431844
  C   -0.99677191396273     -0.39994021003028      0.40161760110015
  C   0.04322529945063     -1.25497074206700      1.15684015067656
  N   0.60724854541162     -0.64771513702053      2.23375669123235
  C   1.65577464819289     -1.25335280932070      3.05977976185848
  C   1.17169228493859     -2.48191735263760      3.82846242841958
  O   0.31400209076821     -2.40592650625831      0.79337987903579
  C   -2.34728156976853     -0.25775241573040      1.14318915075071
  C   -2.34802193379146      0.52989573990795      2.46786022007391
  C   -1.75849605421279      1.94176225353258      2.31029396847046
  C   -3.77822916537566      0.59686793634315      3.02402665404854
  O   -1.58553188812611      0.87780771678848     -2.03318683084461
  C   -1.31395350621815     -0.15649717862049     -4.50739844381038
  C   -2.76622422635431      0.20070543340834     -4.77806483326207
  C   -2.94029390278456      1.64972968730236     -5.24483717880815
  C   -4.40657712679744      2.09476965412883     -5.35097774332645
  C   -5.21633743764491      1.97896133306884     -4.04634677091213
  C   -4.58629921366780      2.68810780392147     -2.84004922525386
  C   -5.46102399888563      2.63721889879827     -1.58239485488981
  C   -4.85822498241015      3.37167929696027     -0.37957881709691
  C   -5.75756568176623      3.36446186276795      0.86282314011224
  C   -5.18551055665355      4.15345916317014      2.04407206220072
  O   -0.39185347323115      0.30846550373335     -5.15616126899631
  O   0.58809860991366     -2.57163467893765     -4.46265126857949
  O   2.44585154752583     -0.68884619011597     -0.47623039113389
  C   3.23564464983025     -3.91906669115951     -0.75019981699400
  C   4.13463630955223     -5.02795971646485     -0.20376913043672
  O   6.69916284002803     -2.50742649200185     -0.00071307281872
  C   6.67262003168425     -2.07273352026779      3.12131785851497
  C   8.03579919942634     -2.69908577553833      2.80091091368709
  C   5.63928748504445     -3.14143705707821      3.51340109577667
  H   2.46640005524438      0.71965903603875      1.39154441848679
  H   2.06878111324483      3.07360046186602      1.95089758589170
  H   3.69533869105582      3.11325023088960      1.17930561335288
  H   4.82048652291219      3.06123637806514      3.36560599384980
  H   3.45281350355523      4.14980016737574      3.73074653221729
  H   3.87758309558884      1.75416702706706      5.16602759332025
  H   2.23458683374517      2.37999087920607      4.90094247006767
  H   4.57395361193350     -0.59581292616918      3.28248595757811
  H   6.98991724847232     -0.49882824475040      1.63622881209218
  H   3.84026950220192     -1.49936105909558      0.94022271214801
  H   4.81934717141065     -2.62510346545224     -1.53487393141462
  H   3.06501309323450     -2.20860698726513     -3.20416892726122
  H   1.67485481591355     -0.33690044992410     -4.10771756782519
  H   1.20865140573366     -0.01652864241223     -2.40626526689505
  H   0.33052635927963     -2.46363527029855     -2.39942290108842
  H   -1.85783884332691     -1.92555865968359     -3.38697337094153
  H   -0.79363725945622     -2.00742461796438     -0.89129923459270
  H   -0.58064695029864      0.61232062901925      0.21169886740959
  H   0.30830754145165      0.30399700066256      2.45516704709070
  H   2.47700558552196     -1.55803828146707      2.37419077065862
  H   0.76171793719636     -3.22246726155175      3.11828192860112
  H   2.01495827515515     -2.93864133637527      4.38206378166722
  H   0.40209531018597     -2.19207571927190      4.56816571021292
  H   -2.75744767091754     -1.27623543416493      1.31366869800170
  H   -3.03295844836603      0.24814643839075      0.42917830725470
  H   -1.73216270320028     -0.02847775662109      3.20832934601880
  H   -0.68547539566683      1.94440160305782      2.01882508350650
  H   -2.29626080639937      2.50658531537093      1.52043683270912
  H   -1.83903969268853      2.51625985252003      3.25497477390501
  H   -4.20145347866945     -0.41780834804153      3.17042377734075
  H   -3.80832119484155      1.12197808601281      4.00010346690692
  H   -4.44740785052558      1.14298574488642      2.32692308784357
  H   -3.36306771848367     -0.00292642707266     -3.86658455934214
  H   -3.13784823236742     -0.51269579136650     -5.55238533793940
  H   -2.42631297833259      1.77928586633465     -6.21883712173712
  H   -2.39756800609713      2.30236956844294     -4.52988100556399
  H   -4.91886135182963      1.51089020774399     -6.14824189390240
  H   -4.42348269216085      3.15335605718135     -5.69252180697112
  H   -5.37642164660285      0.90620452473283     -3.79210670838548
  H   -6.23584311035532      2.38828241577711     -4.22336173199052
  H   -4.38547641252433      3.75185333125955     -3.10470366510956
  H   -3.59587407716346      2.24000190751439     -2.60739514054542
  H   -5.64915306643915      1.57360136382778     -1.30740070315736
  H   -6.46406335731581      3.06769795685361     -1.80748907041165
  H   -4.63837157680337      4.42544372459478     -0.66625081528065
  H   -3.86995793948326      2.92020555147501     -0.13200336437345
  H   -5.94791949663219      2.31056546620590      1.16958902858563
  H   -6.75581671160969      3.77438008540430      0.59009865381028
  H   -5.86139001581080      4.12807798531861      2.92313107574697
  H   -4.20525350244566      3.74563268873519      2.36660670467336
  H   -5.02471804405680      5.21858318580802      1.77481277463040
  H   -0.03861754239722     -3.31795039031195     -4.48872259144449
  H   2.86785666252374     -4.18394921635285     -1.76553114230645
  H   2.33372446123804     -3.78807211158384     -0.11362150256218
  H   3.59685312963816     -5.99652389255866     -0.16671066823458
  H   5.04560676824998     -5.15620589492912     -0.82258383378961
  H   4.46890970944876     -4.78598338890826      0.82491620730824
  H   6.80577238998071     -1.38277110761864      3.98644670763351
  H   8.79595537372765     -1.91939236346075      2.59284128227199
  H   8.39249576992131     -3.30812192195609      3.65621617152961
  H   7.97176080696270     -3.34398969622872      1.90316661060320
  H   4.64386012546467     -2.71164564557440      3.75308663019682
  H   5.49446742286202     -3.87300902174504      2.69212838916800
  H   5.97578277331966     -3.70062905474190      4.40905262272472
