115
Coordinates from ORCA-job 77
  O   5.57597384238028     -0.91600059454433      2.75736985463638
  C   4.79423434483951      0.03522711036608      2.76218922724633
  C   3.83015673135431      0.32434082119427      3.95217957939780
  C   4.02131673067261     -0.69657447950460      5.09301543336964
  C   2.71705469296053     -1.53121692713280      5.12962540945832
  C   2.07443850353300     -1.28561508628237      3.75517807332431
  N   2.45004812170348      0.10455248633187      3.47538491488495
  C   1.75342154626430      1.09718909250251      2.85657690584002
  O   2.21914745558853      2.23362794733321      2.69336607751832
  N   4.62480576836552      0.88051130423643      1.70888737929450
  C   5.25021950444420      0.61239549784289      0.41711458647255
  C   4.80396932984844     -0.77204003803474     -0.14216793724341
  N   3.49499303592542     -1.09293340905275      0.12603062630556
  C   2.82750927105607     -2.12237810667436     -0.65501248045771
  C   2.64739427936689     -1.72266163705590     -2.13751629829607
  N   2.64937953487243     -0.37904863166440     -2.40410117331799
  C   2.67790482361464      0.09016641897191     -3.77393149530995
  C   1.30995255908844      0.20727086496347     -4.50295654763155
  C   0.13126227344586     -0.36095317447597     -3.68863854999043
  C   -0.11539858105435      0.31175665282624     -2.31838606426191
  N   0.23430639608663      1.62557557503185     -2.26936556423522
  C   0.03688545679251      2.40457415891194     -1.05823052751535
  C   0.63661290674567      1.61516931739906      0.12581029325134
  N   -0.07543128110596      1.56630617328713      1.27370921057891
  C   0.32424904873935      0.73197778970271      2.39741364797505
  C   -0.66596936753921      0.91214935078853      3.55330361805870
  O   1.75609659829169      1.08884746263149      0.01253565173529
  C   -1.42881715169250      2.84789787398270     -0.89204694271355
  C   -2.02143299001887      3.55102801401233     -2.12939020963132
  C   -3.49677528098279      3.89635736227482     -1.88759006693300
  C   -1.22131865900489      4.79617020485023     -2.53851445222875
  O   -0.64387076580247     -0.28194437858303     -1.36916580886787
  C   -1.19407022606249     -0.24669418182028     -4.44743407687530
  C   -2.36440441156068     -1.01480774018792     -3.87147599234301
  C   -3.54688209465589     -0.07875572324778     -3.54397870488548
  C   -4.47647733496075     -0.66667864454700     -2.47941058297454
  C   -5.69665327805737      0.21476634522569     -2.18780326069614
  C   -6.50081952850757     -0.20608936490901     -0.94635939223367
  C   -5.71836654691987     -0.16659061539536      0.37907838309298
  C   -5.09928700742460      1.19851299461336      0.69966967609110
  C   -4.38011720244841      1.26064956984501      2.05161807362187
  C   -3.80490386249868      2.64541161508579      2.36377219743560
  O   -1.31797191109687      0.50386862464441     -5.41734459907307
  O   1.08779756471283      1.58813752718055     -4.84173645558977
  O   2.49769851302472     -2.56891495214440     -3.02506831546237
  C   1.48075656675788     -2.49606426755538     -0.00184676861916
  C   0.78429000947302     -3.70242961443621     -0.63293813145690
  O   5.53261877368581     -1.48284151222886     -0.83064445889793
  C   6.79142637319455      0.78884410666008      0.39033546258076
  C   7.27519899998131      0.99440042959775     -1.05358100159999
  C   7.24059765540661      1.95061701385506      1.28576360140469
  H   3.92397857934046      1.38653567348500      4.25377146071004
  H   4.22002991579472     -0.19799881039673      6.06013891715319
  H   4.89659243208274     -1.32454771094843      4.83478117490692
  H   2.89859906276521     -2.60752106171770      5.31521006480003
  H   2.03527408714891     -1.16216893852102      5.92376059907360
  H   2.51506191164112     -1.95158856922397      2.97918757124068
  H   0.97897588620648     -1.42810105752677      3.75105698270640
  H   3.92873827748944      1.63444224172146      1.80408997328172
  H   4.80898944104375      1.36174138139548     -0.27893334520614
  H   2.89630599732690     -0.35307973414105      0.51612151005231
  H   3.48920123380458     -3.01167351344439     -0.69598142251443
  H   2.57574437917196      0.29016032740141     -1.62499409984614
  H   3.32012778879077     -0.60956313096615     -4.34228682887358
  H   3.14896313318644      1.09204321862275     -3.80486589126993
  H   1.36045422756891     -0.38511348239728     -5.44361543640077
  H   0.32464573428274     -1.43136615742624     -3.46740091410725
  H   0.62578195677924      2.03253247478253     -3.14109183218959
  H   0.68312406726688      3.30269913247297     -1.15038224809995
  H   -1.01776410621301      1.95847023352187      1.28413136257868
  H   0.32390591666214     -0.32517703622588      2.05324677620007
  H   -1.69511287821036      0.64547280096521      3.24018278562862
  H   -0.39241554101809      0.26623361244738      4.40886231058407
  H   -0.65447305633753      1.96398482947302      3.90194979780160
  H   -1.49860970260576      3.54008436753628     -0.02228698132108
  H   -2.04141809403837      1.94990313399679     -0.66060221894492
  H   -1.97336569734615      2.82145367001082     -2.96927675662500
  H   -4.08873199961487      2.99350789332225     -1.63434693204561
  H   -3.60806375883229      4.61375362528711     -1.04663400454625
  H   -3.95455866230726      4.35720383120589     -2.78602705059189
  H   -0.17781445382323      4.55620782568825     -2.82768734265376
  H   -1.69015995075169      5.29802410211558     -3.40880166929661
  H   -1.18060848604359      5.53461174809693     -1.70884525224793
  H   -2.03316227550381     -1.54324740499405     -2.95656255961491
  H   -2.67058757473013     -1.78463982238416     -4.61325263949955
  H   -4.10031720377994      0.17074144272421     -4.47333045113029
  H   -3.14948390957732      0.88859896580115     -3.16517767603842
  H   -3.87835813491226     -0.80969307123004     -1.55279773099138
  H   -4.81315808149698     -1.68383273521193     -2.78201907897930
  H   -6.36709830658043      0.22044640165377     -3.07466066654899
  H   -5.36068686542564      1.26943999319267     -2.07177355869512
  H   -6.90046794428271     -1.23300988921840     -1.09840972246433
  H   -7.39048282949019      0.45598770873621     -0.85805841496838
  H   -4.91498886161395     -0.93671089228517      0.37130989039818
  H   -6.40123140148407     -0.46123663353343      1.20620831481206
  H   -5.89082536866137      1.98210782304071      0.66612841056677
  H   -4.37359489308903      1.47687026740363     -0.09595665349477
  H   -3.56724575986297      0.49855678442754      2.06005831859768
  H   -5.08033719587815      0.95622462212448      2.86104225202254
  H   -3.27259106111068      2.67046244615226      3.33579919978490
  H   -3.09305870499832      2.97406123996203      1.57641450673298
  H   -4.60553033409751      3.41298577980757      2.40300995979796
  H   0.23535994205886      1.55761199401728     -5.34799342474838
  H   0.80529405952615     -1.61512433762685     -0.04659653011731
  H   1.69095576912474     -2.69889321754993      1.07059787977966
  H   -0.17831561623840     -3.90881594971207     -0.12274158531844
  H   0.57724914743930     -3.53335108735675     -1.70695522480899
  H   1.41317184004654     -4.61387629603448     -0.56444842257304
  H   7.22688107806849     -0.15352765164342      0.78164259009105
  H   6.96466014886254      0.14937045506375     -1.69482958572763
  H   6.86227017948969      1.93722496558659     -1.47670572690131
  H   8.38126263255844      1.07138437474825     -1.08870432404539
  H   6.98949293730953      1.77993848543264      2.35046970979316
  H   8.33954619690266      2.08337960603905      1.21621784200451
  H   6.76924101939270      2.90851208558137      0.97476201811393
