115
Coordinates from ORCA-job 78
  O   7.35320323033939     -0.74673157619747      2.24960724692153
  C   6.51815851480125      0.10149858462745      1.93578938191889
  C   6.32324967088783      1.41597681860416      2.76106715469508
  C   7.22489692005739      1.43677419464250      3.99584635433849
  C   6.41723184828468      0.61613978150054      5.01611651789526
  C   4.96160522052651      1.04423546443711      4.76514518700916
  N   4.95536458363322      1.45421381389170      3.34415375189207
  C   3.87374829538298      1.82360271852085      2.62539424868967
  O   3.93776841884153      2.10820728419991      1.40523889754565
  N   5.64369640782389      0.01674284129322      0.89997062542498
  C   5.38973538834037     -1.16249070565837      0.08317326944888
  C   4.54416153400458     -0.81787453994347     -1.15550154506736
  N   3.48716078648671      0.04893357420173     -0.96705979689971
  C   2.53404481111492      0.30557331512610     -2.05270325638541
  C   1.84413168419666     -1.00081574299090     -2.53144465660740
  N   1.68006507495100     -1.93761850935604     -1.54020503669609
  C   1.03798789505253     -3.21534875084806     -1.75289581921871
  C   -0.00962464741550     -3.49321647436353     -0.66422878542839
  C   -1.26333390595988     -2.58072645351595     -0.74323615352957
  C   -0.93392481449324     -1.08901818389814     -0.58622247526509
  N   -0.54103455068499     -0.69163717100106      0.65993557228517
  C   -0.10735717785181      0.67149289837028      0.88537546329712
  C   0.74602226794260      0.67303633889442      2.15755438059577
  N   1.48115572721393      1.81186842935353      2.33582576853496
  C   2.51549160461009      1.91925448430907      3.34616681634587
  C   2.39157846050709      3.23861287661741      4.12775024511861
  O   0.73919135137040     -0.26954153249009      2.95582509100264
  C   -1.30716100230879      1.65010781975415      0.94853606660441
  C   -0.98827165695544      3.15490894362198      0.85533497597082
  C   -0.13281728502955      3.49308166118349     -0.37813609645811
  C   -2.30149730559843      3.95299404892270      0.83952630629696
  O   -1.03130829231394     -0.28853519222131     -1.52327205035798
  C   -2.11731550379969     -2.73225638168061     -2.02192016837904
  C   -3.47903655964489     -2.04313151176475     -1.98805994651782
  C   -3.71562574644746     -1.18281893992930     -3.23720312633737
  C   -5.08764114590665     -0.50380543746296     -3.25393202206184
  C   -5.30544955938846      0.37779913066127     -4.49096998625372
  C   -6.67619126349831      1.06880845171652     -4.55462086772798
  C   -6.92137847305794      2.10806994292550     -3.45224568737334
  C   -8.27013958259395      2.82665566026324     -3.57251878847962
  C   -8.52082978524948      3.86500874597669     -2.47143459830085
  C   -9.87039673234092      4.57819595186051     -2.59871026193545
  O   -1.74520164989864     -3.35988223418834     -2.99620236672928
  O   -0.34830064013993     -4.86397050727950     -0.75543955018075
  O   1.40991777598600     -1.12112523348133     -3.66934963343141
  C   3.12143644344244      1.10468254195696     -3.22208095309019
  C   3.57703520350249      2.50374281360535     -2.80634191824973
  O   4.71925432614808     -1.41797581787123     -2.21314535360729
  C   4.65249959659243     -2.33264938783152      0.83549741164991
  C   3.56154016847029     -1.81895754766017      1.78360112508564
  C   5.62347913556452     -3.28341717629301      1.55083330009532
  H   6.44514168514171      2.29226281706053      2.09166407195365
  H   7.37530437397944      2.47948774065006      4.34297506134447
  H   8.20585762373303      0.98014192067345      3.77051619372597
  H   6.54417298503807     -0.46103539957357      4.79056605227845
  H   6.72380415283831      0.78695480632027      6.06569659223784
  H   4.23353448191473      0.22677579622061      4.94325969950027
  H   4.67356934339513      1.90229468471226      5.40936824935677
  H   5.05038451161538      0.85404398193877      0.77683808753492
  H   6.34769395407567     -1.55466787636723     -0.31128618169990
  H   3.43956072946266      0.64719871553335     -0.13506489666746
  H   1.70929304188994      0.90227137585655     -1.60065044914879
  H   2.17506331901360     -1.77557968838763     -0.66145725503296
  H   1.76978287245677     -4.05247927046062     -1.72936277380234
  H   0.56513109052865     -3.19768813041307     -2.75163089311550
  H   0.47754410726481     -3.27613764670092      0.32527326088593
  H   -1.92232938051626     -2.85634684747611      0.11507232296894
  H   -0.39925927903293     -1.33574027379200      1.44609482665559
  H   0.53021311838195      0.96914213778943      0.02404704123775
  H   1.61454132943640      2.41913310409381      1.52111737305992
  H   2.37902566768427      1.04916459927105      4.01998336031646
  H   1.40152300991129      3.29249059380577      4.61985175841793
  H   3.17419848434867      3.33000219921176      4.90598339495874
  H   2.49153568804904      4.10340237626506      3.44119231883447
  H   -1.88679967002330      1.43688455313957      1.87217710388760
  H   -1.94993654021352      1.37937442062689      0.08512258755771
  H   -0.42653860587105      3.45518974837193      1.76822552553376
  H   0.89267667604181      3.06618241629367     -0.33322341573143
  H   -0.60018206492200      3.09744398857738     -1.30402699296036
  H   -0.01488566369495      4.58945858300630     -0.49351690390808
  H   -2.92577970191433      3.72378461954216      1.72752663735068
  H   -2.10968299166008      5.04531720873364      0.83171356057139
  H   -2.90038527896730      3.70912227423264     -0.06350451246263
  H   -3.59063162862976     -1.43571242299666     -1.06522032636226
  H   -4.24402531413433     -2.85223706307315     -1.93273075811784
  H   -3.58599054357216     -1.82502650219019     -4.13379242910992
  H   -2.91037698253158     -0.41977069689478     -3.28076431060023
  H   -5.20083232067416      0.10748694566272     -2.33058135204045
  H   -5.89200183009606     -1.27407297742317     -3.20471213014149
  H   -5.16842039065881     -0.24624353915642     -5.40136486113170
  H   -4.50198355837914      1.14804249500107     -4.53327256606406
  H   -7.48011779267890      0.29815199878497     -4.51644277707758
  H   -6.78521967129444      1.56592564565087     -5.54411617186206
  H   -6.09929256121216      2.86027987538739     -3.47050297335968
  H   -6.85987537534783      1.62281736468000     -2.45262438792741
  H   -9.09079553462843      2.07298373923984     -3.56088467764031
  H   -8.33689137888639      3.32246295910511     -4.56817965603906
  H   -7.69795424790128      4.61498184265414     -2.48441758894738
  H   -8.45291297058396      3.36595354426905     -1.47834008120042
  H   -10.02239557175769      5.32171376437553     -1.78971304886066
  H   -9.95207443933544      5.11614382377975     -3.56684354076362
  H   -10.71341773498680      3.85667246248564     -2.55251584824110
  H   -1.02906620933926     -5.05271500016602     -0.08412507332784
  H   2.33869133324379      1.14776097669723     -4.00502592003792
  H   3.95934495081164      0.51964074839779     -3.65107940171945
  H   4.01702522533192      3.05570740997751     -3.66089123669028
  H   2.72952410725891      3.10986034736121     -2.41900568134667
  H   4.34584374377144      2.46297876181675     -2.00636374877077
  H   4.16432750690497     -2.91938313013008      0.02482464165580
  H   2.83103232810658     -1.15423872612120      1.28050037874448
  H   2.98894628953082     -2.66036741060890      2.22141809223564
  H   3.99818025193428     -1.24475351053689      2.62654622148490
  H   6.38077710215785     -3.67967835907706      0.84512813459866
  H   6.17024000180669     -2.76825833457537      2.36251439032987
  H   5.07206508088607     -4.14713068424382      1.97674362459775
