115
Coordinates from ORCA-job 79
  O   5.15095596103116     -3.03245221944943      2.57071902301087
  C   4.62394620145178     -1.94237478361012      2.34671198192151
  C   5.39397199160442     -0.65998023794724      2.70133443515137
  C   5.45311402083196     -0.39377589881007      4.21900936350801
  C   4.28482265895615      0.57695286233093      4.44574478725989
  C   4.33127801966837      1.48718223952093      3.21095700854921
  N   4.84224383633291      0.59117574223873      2.15429485549059
  C   4.96141411641985      0.85686796964327      0.82234095753487
  O   5.33283418381377     -0.02036506045798      0.01819377756737
  N   3.40516753816900     -1.79868541680591      1.74083490362465
  C   2.73901662634227     -2.96067983809521      1.17147711020993
  C   2.82038215524150     -2.91448350176560     -0.37475722028018
  N   3.96006426390532     -2.39832288834896     -0.90115754137813
  C   4.09099687149652     -2.13034694896479     -2.34112066068012
  C   2.87673534950435     -1.26875763243428     -2.80673230960077
  N   2.64715902954644     -0.19075344963476     -1.96913320285554
  C   1.30718506147439      0.33477006861334     -1.75938194269072
  C   0.56242548783963     -0.52345012186919     -0.70029955014212
  C   -0.38204342523114      0.31181155958594      0.23358464331591
  C   0.54145474571288      1.17678843568684      1.10501861468618
  N   0.45024497910669      2.51547652990117      0.94133186445570
  C   1.22550852723324      3.52490370192930      1.66556030283437
  C   2.72622417499141      3.57031311061237      1.29021588292326
  N   3.19486725653933      2.52227165429799      0.54709108077642
  C   4.61834124311432      2.28389427825827      0.33939589875519
  C   5.03955993415976      2.49860672962392     -1.11458155428367
  O   3.44364194333461      4.49775291600870      1.66821391637637
  C   0.99969939271421      3.39246648949936      3.19480057433950
  C   1.66706481847813      4.43825044762703      4.10604090735555
  C   1.32681156188325      4.11737698025596      5.56953861426040
  C   1.27510185404534      5.87532864372030      3.73665068415837
  O   1.38953370667912      0.61634398291051      1.83555027491397
  C   -1.50001976035270      0.98906607654911     -0.55904524136329
  C   -2.62326247709744      0.09088153815254     -1.00589959615504
  C   -3.63940458319955      0.74619330560198     -1.93783389672028
  C   -4.76967654983930     -0.20504022209017     -2.34595096152152
  C   -5.79130344147943      0.43096481460452     -3.29530651017409
  C   -6.92820204237930     -0.51372465314858     -3.70146093292475
  C   -7.95017494470903      0.12038464534443     -4.65214591039904
  C   -9.08881182717138     -0.82312828463053     -5.05637601797986
  C   -10.11209964110146     -0.18991751877672     -6.00791837182081
  C   -11.24614495140591     -1.13980058955525     -6.40513810083745
  O   -1.47173287716350      2.18973278724511     -0.85152408165697
  O   -0.13046342287874     -1.60534566595098     -1.25464875947461
  O   2.19836900002951     -1.51294924872073     -3.79509659161555
  C   4.26271560490007     -3.39880007517944     -3.18822768200263
  C   4.77996685661967     -3.10864584109504     -4.59974210693551
  O   1.89280960612301     -3.33057531443597     -1.09707591249380
  C   1.29133628564299     -3.20467869844204      1.67689297034530
  C   0.94132407389011     -4.69490757696050      1.54463760315335
  C   1.10470305165515     -2.70644763699883      3.11584065687846
  H   6.39955327982558     -0.83782420877742      2.26885843201511
  H   6.41786183167294      0.09118427549889      4.47390932065191
  H   5.38480253283804     -1.33577628294560      4.79464311027408
  H   3.32316700454915      0.02270681366005      4.45839379828334
  H   4.35829117595102      1.14788661884331      5.39116624253543
  H   3.32937044325187      1.85738564376733      2.93872840979775
  H   5.00546405435147      2.36009816616478      3.35129257027170
  H   2.94800736563199     -0.87784989218476      1.69331851112035
  H   3.37514396139784     -3.81530503229473      1.49863534687718
  H   4.61426847026659     -1.90205488165545     -0.27934298303270
  H   4.99955198970819     -1.49687416790506     -2.43402064825242
  H   3.27804566076426     -0.14712492465929     -1.16080111498669
  H   0.76090854993714      0.28460133132322     -2.72146304482186
  H   1.37240503122780      1.40081386113319     -1.45684575529730
  H   1.33736946456439     -0.89218275146266      0.00897217959612
  H   -0.83186123155184     -0.44643864026966      0.90688955983206
  H   -0.25617239261806      2.79800833573992      0.22686845246170
  H   0.82744880965136      4.50648686121817      1.33896337168492
  H   2.56426328207727      1.73559728048636      0.39582701667614
  H   5.13275642028988      3.02264206218637      0.99282742293752
  H   4.81472990480266      3.54128986871198     -1.40975986807064
  H   6.12360325872310      2.31394950085135     -1.23977663603510
  H   4.49608285526786      1.80904243699847     -1.78962019083101
  H   1.31007388633964      2.37324081314098      3.50201587105571
  H   -0.10224600897660      3.43478122473492      3.34479194002646
  H   2.76679350175665      4.35239269352649      3.97644396584380
  H   1.63128140632650      3.08522735384407      5.84239363631054
  H   1.83884019147269      4.81603940024834      6.26210970727888
  H   0.23437203878643      4.20215223456288      5.75598606174341
  H   1.66586185863222      6.14924548483369      2.73719449955686
  H   0.17092213553432      6.00682868847095      3.73999289624938
  H   1.69860086441835      6.59914805261250      4.46251624599955
  H   -3.10906453048239     -0.30060637816602     -0.08070423652058
  H   -2.14443467767370     -0.81153994055622     -1.45271362570869
  H   -3.11177409155900      1.11678341769245     -2.84317315005567
  H   -4.05876866786342      1.65293791553829     -1.45111412220713
  H   -5.29346318327258     -0.57174558193269     -1.43338618774797
  H   -4.33486579862079     -1.11187243014248     -2.82397572162966
  H   -5.26741322141856      0.79255156053185     -4.20917004170968
  H   -6.22021307378763      1.34148399260801     -2.81792232060301
  H   -7.45117443095035     -0.87516929863524     -2.78655339451079
  H   -6.49765140353940     -1.42418675901376     -4.17728506199977
  H   -7.42707142289821      0.47997230813652     -5.56756614300632
  H   -8.37856547578134      1.03237803087773     -4.17676896634107
  H   -9.61163982313878     -1.18297551349750     -4.14050472142618
  H   -8.66006298041488     -1.73530645767210     -5.53130848185402
  H   -9.58639094434682      0.16884454732686     -6.92134865900432
  H   -10.53672190971403      0.72228084866293     -5.53128277034756
  H   -11.96861125801147     -0.65443544566115     -7.09260748868032
  H   -10.85388378363675     -2.04420688259004     -6.91652297874889
  H   -11.81260523072425     -1.48598532450926     -5.51479679715201
  H   0.51920310826376     -2.36090050691891     -1.33319660424144
  H   3.28612627944391     -3.92027792676658     -3.22855800171651
  H   4.96900322915319     -4.06290197946353     -2.64707853904705
  H   4.91999976490552     -4.04960269011995     -5.16885011488325
  H   4.06223488009232     -2.47661027604848     -5.15679089158445
  H   5.75984770856485     -2.58531815072835     -4.57404857237304
  H   0.59836913004037     -2.64485611295420      1.01282475803213
  H   1.08588182337140     -5.04378452793502      0.50467757832999
  H   1.57975879928644     -5.30852144310111      2.21560919015652
  H   -0.11644341438775     -4.87701540789604      1.82380291421668
  H   1.20627123251319     -1.60585354927825      3.18406798024299
  H   0.09337190562430     -2.97652696891239      3.48272973451201
  H   1.84574781761845     -3.17007947486326      3.80072907248681
