115
Coordinates from ORCA-job 83
  O   6.50673193356610     -1.96586841904600      0.29102819044825
  C   5.93253432595206     -1.44852150861296      1.24493858151077
  C   6.16955574470056      0.04128706993041      1.56774368787351
  C   7.56266709423017      0.27729130143229      2.17836521937221
  C   7.29253485357328      0.17142444748210      3.68542086001734
  C   5.95432180360150      0.90853728530612      3.84556604763232
  N   5.24838367123664      0.61247635396177      2.57882529548599
  C   3.96765921367526      0.87337708233704      2.19383766115214
  O   3.57991161821593      0.46459292725770      1.08167362060932
  N   5.07192986268000     -2.11576323590381      2.07461327177354
  C   4.61360201577193     -3.47123625090891      1.80639957127623
  C   3.07672155473097     -3.47632091886735      1.58555345938892
  N   2.57791299625369     -2.29292277421098      1.10483966698101
  C   1.15698783380457     -2.09464648606858      0.86356917332433
  C   0.87393292078294     -1.49094747618925     -0.52851690730046
  N   1.54231489994321     -0.31808643915995     -0.80328964206366
  C   1.54082622518998      0.30725502200307     -2.12633636779036
  C   0.16046319755353      0.59240633637187     -2.74667334929523
  C   -0.92118388099436      1.11768144119632     -1.75272691795647
  C   -0.54382325807766      2.45782095776040     -1.10190881681689
  N   0.34531867606491      2.34351474431033     -0.05957392543466
  C   1.02192154212931      3.52277739432208      0.49049058988031
  C   2.20825733040817      3.06957237278481      1.34484622144615
  N   1.89765749987723      2.14146310987531      2.30967016373159
  C   2.94327363785142      1.56717527725178      3.14303311632678
  C   3.45756181321638      2.61345739817875      4.14818215394191
  O   3.34907123653776      3.51303815947924      1.21337251996846
  C   0.05504645379067      4.40823569261157      1.30954353975973
  C   0.71597644581313      5.57982094274653      2.05927852421803
  C   -0.35485388263203      6.37723040556459      2.81863512293722
  C   1.53288786385112      6.48625244559578      1.12463792890695
  O   -0.99934464739733      3.53603102271092     -1.48367370595878
  C   -2.25713312682328      1.30320867038981     -2.48766428231922
  C   -3.49769657121058      1.44787017629419     -1.62728568456545
  C   -4.81540360923999      1.40592187035970     -2.40273347867657
  C   -5.16983368943452      0.01031076292501     -2.93225650236341
  C   -6.48437577421398     -0.02831834225400     -3.71882638332318
  C   -6.84361621123745     -1.42105323211809     -4.24921413039207
  C   -8.15574903595205     -1.46391456152979     -5.04073686720910
  C   -8.51383296997280     -2.85663522679904     -5.57204958784379
  C   -9.82724409386726     -2.90139700944437     -6.36347353402379
  C   -10.17597719162207     -4.29672338638666     -6.89046092154275
  O   -2.30767507637034      1.35651946300874     -3.71323541492924
  O   0.40985344359292      1.51959428884212     -3.78054742105803
  O   0.04356073289492     -1.98947446607060     -1.28653777420783
  C   0.49408064986004     -1.23648428069798      1.96532003473333
  C   0.65283225693151     -1.81525637191681      3.37173096539039
  O   2.37340944185160     -4.46080453447420      1.81309985660786
  C   5.07573586584509     -4.50714505186868      2.86680021575367
  C   4.96976711548995     -5.93447808815844      2.30689531353016
  C   6.50996660607827     -4.21462628420629      3.33195950614528
  H   6.02571303865358      0.56552713883128      0.60326758121348
  H   7.92045926906555      1.29380233762430      1.91509793473304
  H   8.29711202585003     -0.45479512635455      1.79436242433643
  H   7.18336511869390     -0.89321092376603      3.98069458948633
  H   8.08732027781701      0.61524911764755      4.31510333505317
  H   5.37356278373537      0.55721361879848      4.72072844295828
  H   6.11645181010190      2.00065267474070      3.95327712178282
  H   4.65709425573925     -1.59697349918793      2.85067195926978
  H   5.09147830455598     -3.73312399757852      0.83474218340828
  H   3.20818277751890     -1.48638462395760      1.01225014457408
  H   0.69926053524368     -3.10265563270152      0.85708670660185
  H   2.31799024002862     -0.04293705689788     -0.18028558096730
  H   2.11232124863118     -0.30754641938615     -2.85513920576170
  H   2.07164463113018      1.27556764939325     -2.03422327653355
  H   -0.24817164502899     -0.36731107113161     -3.13553116936353
  H   -1.06911782510120      0.35049900586481     -0.96373066631870
  H   0.79668992189199      1.42278089208010      0.03677398333688
  H   1.45020287897244      4.12072495505935     -0.33946974285115
  H   0.95076546341796      1.76044503783282      2.35011728370259
  H   2.46929267219704      0.72927959809134      3.70215838282138
  H   2.58008341457242      3.13308501819863      4.57862943784356
  H   4.01803240593992      2.16568711781709      4.98688772746596
  H   4.08150262547182      3.36685989288544      3.63371032426624
  H   -0.48496355243105      3.75758653482286      2.03303092538938
  H   -0.70611847713011      4.78967153759027      0.59814003773940
  H   1.41752132536092      5.15392351845124      2.81459493565034
  H   -0.93203906619508      5.73091902181746      3.51244941835579
  H   0.09854196563334      7.19578447115297      3.41437207703813
  H   -1.07806255430278      6.83684590430698      2.11178377297586
  H   2.40174387706896      5.95102998021795      0.69361115530181
  H   0.90477294686276      6.86250899490843      0.28921667464143
  H   1.92452508835254      7.36683137671549      1.67412060724655
  H   -3.36549334417041      2.42514829985747     -1.10961790343516
  H   -3.46583072636573      0.67920833749364     -0.82300319184962
  H   -4.74653887953797      2.11633815323492     -3.25353347372597
  H   -5.63329293142630      1.77461075707803     -1.74664916795613
  H   -5.22863929429192     -0.70435286655008     -2.07929078101579
  H   -4.34434090267942     -0.35291110618582     -3.58162044800538
  H   -6.42120405494568      0.68546801591923     -4.57131774294979
  H   -7.31361881971182      0.34682474745693     -3.07572196259444
  H   -6.90435426808441     -2.13565300144449     -3.39660782921453
  H   -6.01321435331586     -1.79410222491570     -4.89083051935841
  H   -8.09462945745693     -0.74919147538035     -5.89308503651568
  H   -8.98588844592284     -1.09016046457867     -4.39834693302159
  H   -8.57331117173304     -3.57193408665790     -4.71969397014110
  H   -7.68388478618584     -3.22969885707911     -6.21500235840352
  H   -9.76486729420423     -2.18477690636156     -7.21323457391795
  H   -10.65401946549947     -2.52684400892338     -5.71860472541113
  H   -11.12921370875538     -4.29716165964763     -7.45762593817253
  H   -9.38396754645669     -4.68135273350937     -7.56732595029328
  H   -10.28054829987463     -5.02678652599501     -6.06006264630070
  H   -0.46973035000410      1.63246094419579     -4.20986785694915
  H   -0.58048408455223     -1.12099277345312      1.70833552898917
  H   0.94223451963037     -0.22108236515777      1.91757525799420
  H   0.14953888327252     -1.18070973487664      4.12959555869612
  H   0.22935684904106     -2.83676885410814      3.43875397691014
  H   1.72427404895959     -1.89327451778605      3.65037417782952
  H   4.38859651361594     -4.42585609470597      3.73994100262158
  H   3.93720733609735     -6.15077679643650      1.97928948104751
  H   5.65286756842781     -6.06039378969944      1.43952246803775
  H   5.26271109733380     -6.67778574992338      3.07612526015560
  H   6.59767660576381     -3.23393408511706      3.84156523489996
  H   6.85164514114391     -4.99457804922590      4.04185489780203
  H   7.21079848106962     -4.20650764880163      2.47091217379866
