115
Coordinates from ORCA-job 8
  O   4.38381451298030     -2.27816683638426      3.21247563050408
  C   4.96551515167118     -1.25844702751078      2.83538120381006
  C   5.03278141731755      0.04105586391218      3.68359506051349
  C   4.21834607892476     -0.07013778458362      4.97549776662668
  C   2.84262628007426      0.47442903737832      4.56507717542457
  C   3.17150246650706      1.63847460604871      3.62189996021230
  N   4.45730777153659      1.23155726749527      3.00886422577262
  C   5.20703391848917      1.95332567774309      2.13298951223974
  O   6.27788872814310      1.50936580449133      1.66522697774770
  N   5.64875685938459     -1.16493119356673      1.65587895779076
  C   5.97286959561826     -2.34254931808766      0.85698482464998
  C   4.69671104665854     -3.01181633894854      0.28869978311438
  N   3.63846288294019     -2.14405190771486      0.11803107936646
  C   2.32615894766601     -2.62001420067883     -0.29890161485285
  C   1.86511509058436     -1.91486683624131     -1.59333737638735
  N   2.79956603064469     -1.05904702108908     -2.12107558614461
  C   2.43675116357925      0.07631243630720     -2.93656610777396
  C   2.18032311795090      1.30988117331829     -2.03951142009237
  C   0.91641252754556      1.09947538961538     -1.17699295514833
  C   0.98596862158523      1.89974620898796      0.13287465322409
  N   0.99477744603598      3.24922354467560     -0.04356598570372
  C   1.07152819375486      4.20740049348309      1.05315144304179
  C   2.43303554480263      4.18675197340298      1.78495405400907
  N   3.42467312715845      3.44596667747774      1.20566902426778
  C   4.75620365277057      3.39122760411327      1.78988945392575
  C   5.79161866280617      4.08381670242233      0.90032066377185
  O   2.58506479060445      4.83369583242571      2.82355816323988
  C   -0.08423726206995      4.08153336309813      2.06528160833938
  C   -1.48883053688646      4.09534714190643      1.43743605147465
  C   -2.54979618690733      3.91667096557461      2.53347989348324
  C   -1.75760611718545      5.35831947676241      0.60593574440586
  O   1.08096175364794      1.32619081513102      1.22107899153292
  C   -0.33438629629524      1.49085251243826     -1.97770362420747
  C   -1.41240654458555      0.44774964532677     -2.06502409931160
  C   -2.63867928601097      0.84310555443612     -2.88140020486130
  C   -3.71360390908364     -0.24894829983485     -2.90798415322811
  C   -4.94966770013297      0.12919011729449     -3.73168523062643
  C   -6.02979053922669     -0.95824684243747     -3.75882813249866
  C   -7.26691481619365     -0.58133191849752     -4.58210540218905
  C   -8.34748750280024     -1.66840525663378     -4.60988951347375
  C   -9.58622630224040     -1.29185369226784     -5.43287030878677
  C   -10.65992675475925     -2.38401112123085     -5.45506981615151
  O   -0.41600276549559      2.61095239098272     -2.47979557608423
  O   3.30197011079298      1.51047125490895     -1.15617788040619
  O   0.73774031320865     -2.06603733242289     -2.07581003436440
  C   1.30683466529303     -2.42776958188172      0.85173784519028
  C   -0.01685760808665     -3.17425419607907      0.67978180111162
  O   4.65284119392819     -4.18589290767499     -0.06641303383322
  C   6.90753678191039     -3.36412847178455      1.57124785409280
  C   7.93944971710216     -2.65357014524182      2.45852057939154
  C   7.61083105307829     -4.26038459350280      0.53982002591003
  H   6.11234885653721      0.24114988814247      3.85932597466878
  H   4.67664273235768      0.56281665392123      5.76274232977413
  H   4.18397222617440     -1.11835967309695      5.32517549583376
  H   2.28415803865900     -0.30900152123604      4.01297369971988
  H   2.21951615532304      0.79466978275259      5.42218783796907
  H   2.40061702898898      1.76547338824129      2.84098383654044
  H   3.28901357091705      2.60326552770694      4.16139676895378
  H   6.13883913802310     -0.25963449184633      1.49747152120132
  H   6.52113220913434     -1.95443996493020     -0.03165665896680
  H   3.68371840698013     -1.26900929185340      0.65175460384199
  H   2.44880551235801     -3.70312775093828     -0.51815215742025
  H   3.64170102407824     -0.96732308697879     -1.54225852396589
  H   1.52625861394233     -0.17897950076039     -3.51539565183829
  H   3.24555447451891      0.29934531565683     -3.66558305252180
  H   2.02224949353683      2.21304878218537     -2.67285262335340
  H   0.83955406837186      0.04890330023089     -0.85620655638522
  H   0.73438177878620      3.57283225257175     -0.98437811702801
  H   1.01984374414051      5.21149289828954      0.58205391932351
  H   3.23763905281348      2.89893718534246      0.35345063848587
  H   4.65918746781765      3.94935920672756      2.74819620771471
  H   5.47863053152689      5.12904794965160      0.71241504303767
  H   6.78810343390681      4.08268179782627      1.38029448158324
  H   5.89680537274334      3.55633663981950     -0.06884396279364
  H   0.03066768355688      4.91630619222605      2.78706277821553
  H   0.05112363346422      3.14254744400678      2.63745989501641
  H   -1.56158988027236      3.21799906750276      0.75374113018898
  H   -2.37488712279641      2.98987666623612      3.11744735066455
  H   -2.53046841083241      4.76923342649840      3.24553690592122
  H   -3.57092253171119      3.86086266201402      2.10363808098233
  H   -1.08078217232950      5.44166523083390     -0.26930336821935
  H   -2.79368862735753      5.36208193274843      0.21030240248186
  H   -1.62979613056222      6.27479776504437      1.22138519759711
  H   -1.68084869364171      0.19217695158402     -1.01127007645937
  H   -0.92725275917967     -0.49103022325571     -2.42625162586381
  H   -2.32033212847717      1.08766352121942     -3.91811626809363
  H   -3.06158498923662      1.78757781627507     -2.47557886106909
  H   -4.02414742313236     -0.48732673832899     -1.86505248960541
  H   -3.27426140847382     -1.19029399117796     -3.30873680553102
  H   -4.63797963628859      0.36599110029455     -4.77453391765316
  H   -5.38516183481435      1.07252236202846     -3.32995442231789
  H   -6.33976023108262     -1.19517598621622     -2.71540683791916
  H   -5.59278146788200     -1.90088063980749     -4.16029166982661
  H   -6.95625641948053     -0.34400209149649     -5.62532243027403
  H   -7.70317398198675      0.36164887041269     -4.18002527300972
  H   -8.65740335667191     -1.90636818148285     -3.56640751960362
  H   -7.91099955969763     -2.61128215103830     -5.01226672200894
  H   -9.27270552704638     -1.05321248560176     -6.47416669453870
  H   -10.01884542629269     -0.34889727443228     -5.02884126420946
  H   -11.54155945226626     -2.08307412633109     -6.05698429185207
  H   -10.26593383956266     -3.32783106144142     -5.88786236823601
  H   -11.01863020499372     -2.61761495861181     -4.43031856079745
  H   4.06814400450604      1.77906912130327     -1.69871920454276
  H   1.12924598462503     -1.33698087926171      0.99349707010923
  H   1.82525361173634     -2.77351958501220      1.77075873668162
  H   -0.67215497422457     -3.00867114884392      1.55893342610451
  H   -0.54983568015124     -2.84384095940498     -0.23114660230479
  H   0.15417635848208     -4.26710859951163      0.58823512815923
  H   6.26234143086803     -3.99653759049959      2.21601103054265
  H   7.47317221021763     -2.10722391753785      3.30136718315625
  H   8.63841942340779     -3.39575534138336      2.89445384755239
  H   8.54615750427397     -1.92713528389332      1.87576101781572
  H   6.87372442341170     -4.78362293143211     -0.09530323574303
  H   8.27945913961893     -3.65632830720602     -0.11268614768867
  H   8.24035644190364     -5.01874767130777      1.04852846974398
