115
0
O -5.279783933930853 1.67035244185413 -1.4900796080223517
C -5.295899432163082 0.6196373544358285 -0.8404122059387205
C -5.162827874151798 0.6330258559075189 0.7023821380111793
C -6.292665590350799 -0.1340291674816072 1.3825300788871127
C -7.430123859835442 0.8797317876059924 1.4219958740109593
C -6.723369310353445 2.195690490437073 1.6938187993570086
N -5.357921561867018 2.0098431617615766 1.2158833441892078
C -4.480007653307061 3.0654068972848347 1.3163155567563518
O -4.852481472685259 4.131356969482804 1.8206283721841707
N -5.356144921333462 -0.5476470743241711 -1.5400377754186216
C -4.807050229117628 -1.873153913997249 -1.1937365072713113
C -3.429544447024631 -1.9190759559113737 -1.9048691886932956
N -2.3381271353675923 -2.471734103294812 -1.3074660502131303
C -2.2316613057706993 -3.1389855929020083 -0.01335797519599346
C -2.0386467942132493 -2.122356834117035 1.125637752273768
N -0.8753680445925314 -1.4234676766773973 1.2640677936723907
C -0.019014109366320503 -0.9350241954678785 0.18809158809781806
C 1.1702440353246282 -0.16822531014404077 0.7977761582495381
C 2.103614039635258 0.44601195751376216 -0.25011851035417904
C 1.5159261044401542 1.0011238270974452 -1.5297738142284658
N 0.6806213975539892 2.0543559134715283 -1.6075846262703521
C -0.26964805859880664 2.6842752479815504 -0.6729604239906622
C -1.6729880891799538 2.2639896069688548 -1.160569751549171
N -2.7713190491978428 2.3210585350063164 -0.3668810012655269
C -2.9846214659826007 2.9061131451846998 0.9561554430253056
C -2.300125579476334 2.1518724008723638 2.090558885553633
O -1.8350505361639355 1.8821876273325495 -2.3244177156874506
C -0.13945428659157355 4.212453277763363 -0.7645489316824818
C 1.0944106848693165 4.788706463143475 -0.04113319074449341
C 1.283177667379997 6.256572609358687 -0.4309794628485394
C 0.9723931529225881 4.680925865867078 1.4825244676683642
O 1.9095392465725316 0.5177851978623207 -2.6005867124466966
C 3.1610611052625033 1.3645628277683621 0.3295361470714613
C 4.402290656840066 1.6281176233336823 -0.5045221055548249
C 5.690713862197857 1.385188614879398 0.27534271732469495
C 5.887565280394778 -0.05675235938530819 0.7646247972554381
C 5.872271621633888 -1.138757843646494 -0.3234781123719919
C 6.917732345386164 -0.9933428274222948 -1.4320336603043267
C 8.387209197688886 -1.0692160744129702 -1.0120434350250367
C 8.962895457632177 -2.4856073512701617 -0.8843405642312683
C 8.670862507249893 -3.226070829379939 0.4207685255932725
C 9.258582935053946 -2.5508945292560785 1.647632791543992
O 3.0118363766951566 1.8897245131198395 1.4324419952094898
O 0.6655661566913145 0.7659413504917838 1.761780627251873
O -2.9448109516127103 -1.9226136227593644 1.935702706211335
C -1.1660228445300083 -4.241541158909831 -0.06216881055388889
C -1.0459946436804408 -5.0103735583223825 1.2435936064608948
O -3.291882691420098 -1.489519279109929 -3.0547111692824895
C -5.730375151925436 -2.985364145395308 -1.7682202287314204
C -7.1408010519418585 -2.9282515660640893 -1.1688808092482106
C -5.175217900983299 -4.401733996484821 -1.577632134546016
H -4.176317943662645 0.2594228632522648 0.9689862640660138
H -6.593749170334257 -1.0556230331289707 0.8798593567956083
H -6.002534083077521 -0.3905652540563877 2.4088330687468607
H -7.933748461513398 0.9220301634747711 0.44807940688661174
H -8.18297843415085 0.6483297837281717 2.1796327382448406
H -7.200487827620735 3.0385185503874133 1.173943596583771
H -6.68599028014033 2.4164266759166955 2.768286264599301
H -5.306138871957081 -0.3485785275052116 -2.5396966870604927
H -4.697062860950988 -1.9569694127165695 -0.11316488208784709
H -1.5196214924627325 -2.4288032862056723 -1.900528590503316
H -3.19011799529986 -3.6274801746376295 0.18715435527998683
H -0.937620873225048 -0.7680275379774673 2.0390184009171852
H 0.33275507091305817 -1.7654377973959468 -0.4306366627851806
H -0.648832797835638 -0.2795314653733628 -0.415601961636467
H 1.7616046747679186 -0.8797381548598046 1.392467898982045
H 2.6710289443307853 -0.43129435219427725 -0.6030652723377776
H 0.3851536964025608 2.191205525049111 -2.574555620076237
H -0.10621783283156909 2.3085072361679257 0.3219601869038764
H -3.6070300544054796 2.2259513932610737 -0.9478446963521041
H -2.578649344103014 3.924581361687765 0.9174276195238452
H -1.2309008247623792 2.365649392767707 2.1073374225693504
H -2.430346079126496 1.068206990301119 2.0031138843535437
H -2.6972641611145605 2.458328226639437 3.0688158134586656
H -1.0335003555030344 4.702497404937813 -0.3581666349953877
H -0.09830227648461427 4.495840353701562 -1.8231284026179668
H 1.991117235583221 4.249110716294157 -0.3608277721158973
H 2.1804390977193573 6.675637947624645 0.03001032617331304
H 0.4314442335910025 6.8685066172228275 -0.11590826647312605
H 1.3996271495994748 6.361832142539881 -1.5108349602666475
H 0.9340368597295594 3.635091133317312 1.8036388760696291
H 1.8366365216600515 5.153599295370872 1.9703813929983944
H 0.06090912982385919 5.1794027282785775 1.836563503323989
H 4.38876734224005 1.0099829245124166 -1.404820135287687
H 4.354723910666078 2.672143047566036 -0.838467924231094
H 6.542461447852581 1.6822136850361018 -0.3475157721452482
H 5.71279077681227 2.046443878032733 1.1509983712443739
H 5.096872894471147 -0.2929103659989931 1.487219746759029
H 6.827096856651308 -0.10873646339923361 1.3245538545574176
H 5.961508640890311 -2.1158975063669407 0.15313969113722092
H 4.8864301270609385 -1.152839854276667 -0.8001299770517128
H 6.725972753218132 -1.7454794081591798 -2.204921007753136
H 6.756736190122655 -0.02639322065626797 -1.9234607298341566
H 8.958765881607667 -0.5782355101621536 -1.8103313337003748
H 8.578871388312596 -0.4730487594589768 -0.11638388363947089
H 8.618951337409998 -3.0986196833729482 -1.7281002607904299
H 10.051189912183585 -2.4159154231536024 -0.9922812187926521
H 9.094367696605438 -4.234785831772931 0.3447630104001143
H 7.597341374683253 -3.3725217452139216 0.555795992827458
H 10.330187771806774 -2.37166422554914 1.5174403795471072
H 8.763993607827938 -1.596149185821345 1.8477908016640037
H 9.128642694948216 -3.186640747634893 2.529871523981034
H 1.42726140308727 1.3014068728306984 2.0763928137721686
H -0.18580472386748495 -3.8431049939251 -0.33620552847068075
H -1.4344275834474058 -4.952943583603641 -0.8544065235604527
H -0.39134962855626787 -5.877650800257987 1.110265238775274
H -2.0235054425576613 -5.367670444386653 1.5840463122761541
H -0.6137611359369274 -4.390570849037222 2.0338131578009544
H -5.831150040609414 -2.8319075917718974 -2.849997647399216
H -7.787052084677114 -3.6844909093135185 -1.6282567430939345
H -7.612603019070648 -1.9559859856604083 -1.3351101542786648
H -7.12174475316286 -3.1174997616329305 -0.09142983434353526
H -4.194825785819881 -4.512884616699535 -2.0476522543864837
H -5.07450676039796 -4.649103349886921 -0.5195146269305828
H -5.83910749861351 -5.147439694324635 -2.0337991065693366
