115
Coordinates from ORCA-job 15
  O   0.80422949616687      2.44075780585418     -1.17951100277022
  C   0.27396843256846      2.59038019509840     -2.28939205969962
  C   -1.05836271316719      1.88862950587271     -2.61457291066889
  C   -2.10415091212887      2.06118717514694     -1.49091440685737
  C   -1.88715784920430      0.83285872839960     -0.58978427269932
  C   -1.56259338884696     -0.28418428781463     -1.58615945735588
  N   -0.81591119793099      0.42985378902288     -2.64130555595381
  C   0.02064836980497     -0.08871420162858     -3.57429818135858
  O   0.55777968062425      0.64320667607776     -4.43381273964895
  N   0.82625488910926      3.31575065087328     -3.29519102433303
  C   2.20418826084463      3.83053477905036     -3.27839443257458
  C   3.20168476580436      2.76929264500762     -2.73100895764396
  N   2.94970103139269      1.48899818152958     -3.14361120673732
  C   3.80173226425840      0.37949267072495     -2.73203009192818
  C   3.91522170448557      0.27897548116640     -1.19743577203598
  N   2.85928329136289      0.72584295786004     -0.47272578211112
  C   3.02217631898514      1.06055181724923      0.94242518780470
  C   3.00666868578582     -0.11017414174449      1.93182240826351
  C   1.65927190551158     -0.87099531071688      2.07821849351405
  C   1.18531212496066     -1.72093262550088      0.88047013252434
  N   2.17994078967448     -2.34596415733292      0.19647241490231
  C   1.92713035219453     -3.51958169063184     -0.63157491776929
  C   1.02009853821500     -3.21506632758126     -1.84637991587155
  N   1.06518175704545     -1.92944940025736     -2.32354241869725
  C   0.30269466395222     -1.59586282748229     -3.52958324821217
  C   1.01320136692511     -2.05955439787453     -4.80365264395326
  O   0.36809867086386     -4.09527202198215     -2.40650086874606
  C   1.39054195370161     -4.73257920379204      0.14661316351715
  C   2.38281198863406     -5.42379144422087      1.10169918223024
  C   2.76060718022467     -4.58236152980083      2.33404718254022
  C   1.80086430156000     -6.77665356406973      1.54468331895432
  O   -0.01871851890660     -1.88401906255542      0.63171460627079
  C   0.47566101679233     -0.01113470979861      2.55598438716414
  C   -0.52708788504834     -0.71300298123598      3.44963070969661
  C   -1.79315337243365      0.09396382480717      3.72389186940363
  C   -2.79118846172818     -0.63438216243090      4.62973983477885
  C   -4.07683356782435      0.16047260229394      4.88540615412716
  C   -5.08308675328575     -0.56189253623553      5.78842236249266
  C   -6.37044618395441      0.23165678973386      6.04023708285436
  C   -7.37793235635527     -0.49074835269544      6.94206403083726
  C   -8.66676862988342      0.30239184288633      7.19385309833669
  C   -9.66705328873993     -0.42747131623402      8.09546292258070
  O   0.34107289348571      1.15998549441759      2.22471644375407
  O   4.04990917755819     -1.05307947663394      1.67521892998055
  O   4.91257751234513     -0.25607090650066     -0.67403250005377
  C   5.18798489170393      0.38436978937686     -3.39957305567540
  C   5.10020319288477      0.27471413952317     -4.92155215712160
  O   4.16343103683421      3.05945857824649     -2.01730516012563
  C   2.33022888380646      5.24086651777812     -2.64460209577946
  C   2.12311121022183      5.27338204669266     -1.12298819611385
  C   3.65513622759251      5.90623100048800     -3.05316344474119
  H   -1.43406146833389      2.22096936827860     -3.60524638102355
  H   -3.11970310483010      2.05102550166991     -1.93786031473112
  H   -1.97665144187216      3.02066133205074     -0.95455103113695
  H   -1.02087395088770      1.00373177476323      0.07758294286955
  H   -2.76615459742284      0.59206422572023      0.03822530985348
  H   -0.95875472669516     -1.08893350374275     -1.12803115426100
  H   -2.48564531286432     -0.73030252325965     -2.02146866708431
  H   0.38415589288879      3.19890525131996     -4.20904682984786
  H   2.47332745594090      3.94376477435602     -4.35143400176123
  H   2.14559098801274      1.28305290377668     -3.76044175340183
  H   3.26971013298123     -0.54541079849489     -3.05201301234636
  H   2.13312494439366      1.29183381152493     -0.94621921432693
  H   2.19782406599466      1.74544325249965      1.20854283979059
  H   3.98926279551012      1.59567775867761      1.06810934941387
  H   3.19022767600193      0.35835368035977      2.92884576769880
  H   1.84491827053012     -1.63859296163214      2.86465019977070
  H   3.12874669245543     -2.15018501838925      0.56895710114151
  H   2.91048232982696     -3.79201055209441     -1.07626410793388
  H   1.52339449889898     -1.20796907943205     -1.75720952250557
  H   -0.66176077738519     -2.14587145176097     -3.44638468243366
  H   1.19404044532066     -3.14821624781239     -4.73711236484503
  H   0.38939373438243     -1.85388952356620     -5.69492591822051
  H   1.97467393324682     -1.52667594057737     -4.93471294121981
  H   1.04838423524978     -5.45590943800891     -0.62033327156840
  H   0.47797249621428     -4.41785776131426      0.69716316205221
  H   3.31719568480994     -5.62877060056344      0.52704719215228
  H   3.32072973486643     -3.66092170815819      2.08509372336490
  H   1.84728062903404     -4.28265606521314      2.89345095671367
  H   3.39371204778777     -5.17045366642244      3.03021105857270
  H   1.56632958207198     -7.42401346535051      0.67504730875497
  H   2.50628847913574     -7.32604707013992      2.20141440951464
  H   0.85819986326879     -6.62971701980341      2.11455166838309
  H   0.00330579359427     -0.97548697419520      4.39609860558745
  H   -0.75902049393295     -1.68579779906753      2.96319418647016
  H   -2.27344602573548      0.33796610446731      2.75153332288263
  H   -1.51545224848595      1.07449303275899      4.16630982012392
  H   -2.30537451275011     -0.87188611576838      5.60393854774972
  H   -3.05037853509257     -1.61941866605261      4.17881874534917
  H   -4.56060327209930      0.39803334337584      3.91046305172749
  H   -3.81656469335581      1.14546525609710      5.33560803692137
  H   -4.59929815359873     -0.79794404513235      6.76374846810745
  H   -5.34024972673778     -1.54773908725111      5.33786222077519
  H   -6.85326776742688      0.46832675210004      5.06447584103401
  H   -6.11283428267645      1.21726240808207      6.49114474156021
  H   -6.89505232132332     -0.72735576274276      7.91796616016361
  H   -7.63487398635068     -1.47676227198467      6.49115108007932
  H   -9.14568009031577      0.53843270691723      6.21686748790682
  H   -8.40628617565697      1.28715616609084      7.64318985793951
  H   -10.58707637310753      0.17006916360104      8.25880039126528
  H   -9.97352044336155     -1.39923541183599      7.65371973039099
  H   -9.22781799037218     -0.64415813431754      9.09220048793547
  H   4.57215953113178     -0.71145031272652      0.88076231722132
  H   5.76612551052846     -0.45628741588866     -2.96808194043567
  H   5.70864964538431      1.31402101030729     -3.09385281627316
  H   6.10738267411007      0.29389277104012     -5.38344233312301
  H   4.60556409976045     -0.66945895504946     -5.23510564771090
  H   4.51728285334188      1.11310502701514     -5.35559418321573
  H   1.50247996949638      5.81995061670811     -3.11446306323566
  H   1.14149916449961      4.85956912590468     -0.82653470355783
  H   2.90735330911741      4.68286774877409     -0.61281780481897
  H   2.18147088819246      6.32011789395802     -0.76034513826199
  H   3.78515648826131      5.91699891445829     -4.15628200431087
  H   3.68048454985831      6.95814782203428     -2.70360290653588
  H   4.51303763812699      5.36753880063496     -2.60833382040139
