115
Coordinates from ORCA-job 18
  O   -0.17944439288613      2.83720024030052     -2.94582355651288
  C   0.22703465987038      2.98919681037846     -1.79252311352191
  C   1.09949215769121      4.21358691093369     -1.36446387216696
  C   1.43611949653386      5.10598103721653     -2.57864806823611
  C   2.97882735668003      5.12083432205403     -2.67731629547581
  C   3.41806389669131      3.87518472582244     -1.89592777580788
  N   2.41370457637368      3.79591534004132     -0.82967765246844
  C   2.53931045610520      3.31531438572796      0.43177208728242
  O   1.56457242826710      3.18438839040593      1.19687712016042
  N   -0.03676372727976      2.12020017639416     -0.77843071634542
  C   -0.90887371628859      0.96872291302374     -0.96590951798739
  C   -0.36993653774255      0.03730381772435     -2.07933991987547
  N   0.97543946307498      0.04026564020569     -2.25280908166071
  C   1.59476157769583     -0.72200700159594     -3.33611908447347
  C   1.82590357421224     -2.15535847433841     -2.80546981539867
  N   0.70127414619051     -2.91919282400092     -2.78237235783149
  C   0.61746375625714     -4.18139744458997     -2.05323411397299
  C   1.08980755139675     -4.09426633258191     -0.57361687035600
  C   0.40773374838246     -2.88625277588897      0.15885985828558
  C   1.37389519081959     -2.14083625379232      1.09656625919898
  N   2.43976835740882     -1.59750624157192      0.43068256026783
  C   3.46907180377711     -0.84767195650640      1.11376937365299
  C   3.49902645644423      0.58071209861056      0.55728002771552
  N   3.91695559028660      1.55403168324708      1.40735688470361
  C   3.94348030517438      2.94887111044353      0.96687242399870
  C   4.30093878397482      3.86482724110939      2.13848188093525
  O   3.20736407365507      0.84699631295310     -0.62051054574151
  C   4.86048368359519     -1.50380160820102      0.95934235595920
  C   4.92566755944503     -2.96342214657113      1.44744115547458
  C   4.53245759268974     -3.10345660123015      2.92545593725519
  C   6.32197798160764     -3.54101717546360      1.17490475580848
  O   1.21663130077489     -2.01952313192498      2.31607959235860
  C   -0.94996779461796     -3.23479584373697      0.77009619425988
  C   -1.62525335310108     -2.19350251024524      1.62672632935398
  C   -3.10806775269055     -2.43925127447136      1.88877142996956
  C   -3.72001275824087     -1.39543792335602      2.82874125389001
  C   -5.22331187527236     -1.58189455147645      3.05857690484587
  C   -5.83924149945324     -0.53378606296579      3.99212354739080
  C   -7.34453631683654     -0.71391056893554      4.21936954594116
  C   -7.96076423878840      0.33592184271745      5.15111118682102
  C   -9.46702917146351      0.15641656899489      5.37990072143268
  C   -10.07339384137749      1.20999017752952      6.31178534884621
  O   -1.49259434690588     -4.31438602615126      0.52443568517430
  O   0.92451402551317     -5.32512784687241      0.08133439332243
  O   2.91931203047263     -2.51610553395013     -2.33307390181337
  C   2.88228929541267     -0.04790039225539     -3.80875410950108
  C   3.50549263019215     -0.74037818687680     -5.02211468384768
  O   -1.11947173722273     -0.70093489508174     -2.74368497565498
  C   -2.40705983775532      1.33607158979118     -1.18923542616953
  C   -2.81215612113623      2.55225804253850     -0.34519809026543
  C   -3.32177168227282      0.14354149560149     -0.87259569043918
  H   0.55678324908862      4.73744325539358     -0.55030267216756
  H   1.01624338496959      6.12326356071392     -2.46744464197463
  H   0.96939325008156      4.64234892378658     -3.47011037467441
  H   3.34301960879787      5.10614945130040     -3.72284946666315
  H   3.39648256228852      6.02562617680068     -2.18926416831731
  H   3.37355459676145      2.95013121612254     -2.51286615209061
  H   4.44112972841035      3.95654499677621     -1.48823324010327
  H   0.31460246309690      2.37999575776176      0.16197790739575
  H   -0.83793884759523      0.38625560991570     -0.01874724248186
  H   1.60589838391628      0.54095370894029     -1.60572394856054
  H   0.84991750914066     -0.76347569866528     -4.15925216648130
  H   -0.16843325108017     -2.41216328920483     -3.02566206366311
  H   1.23438656497864     -4.95800532255219     -2.55063460308598
  H   -0.43808456811497     -4.51597750033231     -2.07920051510079
  H   2.17827814625559     -3.89997356432315     -0.60381385163903
  H   0.15280399863076     -2.13805618007249     -0.62785159664701
  H   2.60611511367520     -1.80727273121627     -0.56774513377276
  H   3.16996545291749     -0.82119800671266      2.18214852530942
  H   3.99402408072809      1.34981046820741      2.40553402593160
  H   4.70343385513973      3.03444200308939      0.16611238105447
  H   5.27201188333791      3.57453128652260      2.58734532487347
  H   4.37930844247459      4.91454810295475      1.79569216934486
  H   3.50458701508752      3.81331846415310      2.90761885785272
  H   5.60437141271186     -0.88841325254838      1.51326565833966
  H   5.14625560920651     -1.45758809003463     -0.11400407504912
  H   4.19346281076162     -3.54537468662665      0.84442814176723
  H   3.48196791273922     -2.79979377273323      3.10809095836738
  H   4.63191474079924     -4.15645205860843      3.25865285201340
  H   5.19395137235232     -2.48640729337496      3.57300487923704
  H   6.59194491772702     -3.46448729046846      0.10148843270351
  H   7.09839317016684     -3.00004995719191      1.75826767140307
  H   6.37401848072164     -4.61100839449489      1.46139237615265
  H   -1.44713574982708     -1.19293932454924      1.17351060989967
  H   -1.02493437647668     -2.16234961356116      2.56509499830283
  H   -3.23891594801514     -3.45933671328891      2.30690285755880
  H   -3.65632509176878     -2.44424983973137      0.92137840371027
  H   -3.53859296988284     -0.37489849363702      2.41867771155591
  H   -3.18608181879546     -1.41919863025797      3.80569640726641
  H   -5.40952927531889     -2.60004216279121      3.46973990594686
  H   -5.74882239501274     -1.55613061180260      2.07689241484190
  H   -5.64833123989979      0.48319065098072      3.57905274277448
  H   -5.31271350322440     -0.55967377771868      4.97352666524300
  H   -7.53497033092574     -1.73068396774761      4.63277960135994
  H   -7.87019837067842     -0.68910848223668      3.23746330374035
  H   -7.77015561135724      1.35281619695629      4.73722091389729
  H   -7.43412472764883      0.31151646483759      6.13279964330027
  H   -9.65388213602626     -0.86071900369886      5.79220128821450
  H   -9.98983565004907      0.17970031998911      4.39723870863395
  H   -11.16181155907005      1.05412625126137      6.45763807876652
  H   -9.59488652128034      1.18519349469135      7.31371782924671
  H   -9.93368729604270      2.23465400107915      5.90679842999153
  H   -0.05049307205536     -5.39971366796586      0.22003361247686
  H   3.59675851576046     -0.03390160825590     -2.96094796504989
  H   2.62834314572796      1.00770947392601     -4.04421288414680
  H   4.41524562569026     -0.20563713836857     -5.36118549514986
  H   3.80130360837341     -1.77914711695179     -4.77388500731403
  H   2.79985144711275     -0.77691622352603     -5.87854597879013
  H   -2.51288792745319      1.59538982646652     -2.26294320051734
  H   -2.25596363747902      3.46798263809835     -0.62395168397516
  H   -3.89224134208377      2.76392467110341     -0.47967483990890
  H   -2.64202373058225      2.36710109439845      0.73765158238612
  H   -3.02131262980291     -0.75435224615908     -1.44158805386955
  H   -3.29651065103142     -0.09156559444191      0.21224327301078
  H   -4.37350263638407      0.38257195049121     -1.13052370145807
