115
Coordinates from ORCA-job 20
  O   -0.31246307500397      2.02528338373732     -4.12690773492767
  C   0.83429217721732      2.22829039397144     -3.70425845727414
  C   1.04700079078867      2.46949754521024     -2.20566256754642
  C   0.48143656594532      3.80112872021050     -1.68126897522228
  C   1.72262584171757      4.70067627059035     -1.61328789160068
  C   2.80519868370631      3.74469384220779     -1.09574867952252
  N   2.44931888097688      2.46099537384390     -1.73818505151125
  C   3.06918516518375      1.24291527935083     -1.61381025095139
  O   2.58596753010909      0.24347067351141     -2.17787897973543
  N   1.94142952320808      2.16132152040810     -4.48483890769883
  C   1.89853238448976      1.60904192244860     -5.83517513317307
  C   1.28355893900527      0.18510066800644     -5.87351881291830
  N   1.41766802727662     -0.54543381868641     -4.72760344449557
  C   0.79082202817443     -1.84946878362160     -4.55826094668662
  C   -0.09127939314845     -1.81280971615891     -3.29149455024261
  N   -0.82796917548258     -0.68701215008744     -3.12145823046224
  C   -1.48741769142414     -0.38789212605190     -1.85517129753453
  C   -0.48391097307744     -0.49174188224461     -0.67709522432237
  C   -0.66309789506410      0.59919599311764      0.40909104491026
  C   0.62028857814251      0.72531827618448      1.23298956894156
  N   1.16696644372657     -0.44833700453021      1.64386761744149
  C   2.47957173271978     -0.55341911025138      2.28885610743305
  C   3.56075945108471     -0.45121785958079      1.17630612649719
  N   3.66114336996176      0.82281135588847      0.65762758418892
  C   4.26189968497922      1.04117423097819     -0.65767262496629
  C   5.40688601352665      2.05842308001799     -0.63844688878248
  O   4.21903356096480     -1.40777949805252      0.78167486802552
  C   2.61089968876747     -1.84852516198562      3.09716384576825
  C   2.19022320658375     -1.74852247280702      4.57543333210017
  C   0.73974331252007     -1.28135934766200      4.75725184077253
  C   2.42962602087953     -3.09027148231944      5.28300372578338
  O   1.14278960683238      1.84061016651810      1.44500570294761
  C   -2.00022805465187      0.39263828823969      1.15667958032593
  C   -1.98732546640288     -0.40742530636556      2.43637618655176
  C   -3.35819739061840     -0.61728740739947      3.07221018574812
  C   -3.29107417058211     -1.44147634666174      4.36242153499449
  C   -4.65706751333843     -1.67272588255461      5.01769581770378
  C   -4.59071777603899     -2.49652356577815      6.30870698205643
  C   -5.95626454364149     -2.73102855398397      6.96505520071186
  C   -5.88212083958909     -3.55366773664556      8.25815875925062
  C   -7.24214541256709     -3.85319930535654      8.91028445596760
  C   -7.99435492670520     -2.61360006383301      9.40908095594382
  O   -3.02132119102584      0.84413732528366      0.65830689252945
  O   -0.52827682753387     -1.77332965958632     -0.05648963462132
  O   -0.09599135685569     -2.75378265375785     -2.47202464879053
  C   1.79987260477562     -3.01049411754364     -4.52550392660092
  C   2.92541255743298     -2.84751568355218     -3.49992647587476
  O   0.74096739014560     -0.23085818224535     -6.89760657440863
  C   3.31667156995443      1.64642809129477     -6.46279861141843
  C   4.29252903723282      0.68997962926322     -5.75631720043158
  C   3.26239747648083      1.37831559182603     -7.97223892210692
  H   0.52963404486435      1.60494083626451     -1.75076824754588
  H   0.07697765577684      3.64234159102464     -0.66092385222339
  H   -0.33137337984010      4.18162763145886     -2.32736113518764
  H   1.99220041806491      5.06731384014909     -2.62636201509689
  H   1.59490691730250      5.58172226243576     -0.95560963664082
  H   3.82537408965283      4.06274630405587     -1.37705140489782
  H   2.74887901342452      3.65165087815377      0.01060586912790
  H   2.84597618089889      2.28409616401705     -4.02244212325485
  H   1.20840028580384      2.21961142877591     -6.45240755402255
  H   1.88765082405089     -0.14249007231975     -3.90075529899236
  H   0.12751948697299     -1.97300509630050     -5.44325122849173
  H   -0.70116985531374      0.10430886403500     -3.77042284219524
  H   -2.33320972131501     -1.08111537483007     -1.66337736915900
  H   -1.90862469853711      0.63074414308493     -1.93857074134439
  H   0.52932562916701     -0.32530045165275     -1.11781890173052
  H   -0.77776497181223      1.57227585122974     -0.10375613093983
  H   0.74086519369189     -1.30298393535973      1.23304212536893
  H   2.58557622480747      0.33597261530709      2.94816516254871
  H   2.94645328081315      1.49444815982948      0.99663424426342
  H   4.66632413674521      0.05354546593648     -0.95489713155879
  H   6.27535173481551      1.60445290240538     -0.12240057966837
  H   5.72477436178644      2.32754815094480     -1.66674025018380
  H   5.14924747825866      2.98422273719020     -0.09182445001946
  H   3.66696376605331     -2.17891311950723      3.03114340545577
  H   2.02919625955359     -2.65146888956880      2.59137264894506
  H   2.85325426767255     -0.98844015789284      5.05207375868122
  H   0.56987082757857     -0.27710823995957      4.32010545807422
  H   0.03089532027671     -1.98231199795801      4.26802794244550
  H   0.46876418501139     -1.22835033730914      5.83170833856689
  H   3.48365773103817     -3.42136298861073      5.18265460778236
  H   2.19371078591147     -3.02526722252377      6.36487830322079
  H   1.78669915273334     -3.88504440830026      4.84748254864478
  H   -1.28180042603365      0.08757591477715      3.14077019351416
  H   -1.49694502054553     -1.37538144528205      2.18822424562795
  H   -4.02672521074044     -1.11275720589587      2.33585089492203
  H   -3.82585766573170      0.37086291182672      3.27218961353745
  H   -2.61377483953802     -0.93806597011304      5.08970679268230
  H   -2.81463694484217     -2.42537572596924      4.14749993695202
  H   -5.33214712677966     -2.17864986978196      4.29059600394103
  H   -5.13355529836878     -0.68882908988740      5.23110202541132
  H   -3.91601337299272     -1.98836046405684      7.03527786782817
  H   -4.11053070573422     -3.47879381823119      6.09453996307766
  H   -6.62961627261381     -3.24528262599855      6.24130793936532
  H   -6.43217990788843     -1.74600428015876      7.16812920908954
  H   -5.23195577433531     -3.02323072355391      8.99175455798311
  H   -5.36533587390968     -4.51511992243399      8.04102252923002
  H   -7.08365435356845     -4.55034377653842      9.76189155708027
  H   -7.87919409769996     -4.40686814003399      8.18386479405702
  H   -8.94132923437265     -2.89074341246056      9.91572234196227
  H   -7.38238320325978     -2.03847694423150     10.13638492219197
  H   -8.25602924368220     -1.92435462451968      8.57999412061876
  H   -0.38662301802869     -2.39999411920264     -0.83027733692754
  H   2.22122611023355     -3.10722990713982     -5.54833510832835
  H   1.22954670819650     -3.93892800420854     -4.31894974162537
  H   3.60622316008655     -3.72187597719927     -3.52358109577084
  H   3.53424181492927     -1.94332141411486     -3.70067481612645
  H   2.52611252931805     -2.75521233772955     -2.47174384129983
  H   3.67709114718232      2.69073110799561     -6.31120390979993
  H   4.31528813556436      0.82935728914733     -4.65474592794902
  H   4.01471103507149     -0.36755608735726     -5.94032228423774
  H   5.32486590537643      0.83989549127810     -6.13068881622130
  H   2.62308339366090      2.12076664424722     -8.49060328609211
  H   4.27860470624806      1.43113696252988     -8.41238648368829
  H   2.83787214713062      0.37657928728617     -8.18044765374383
