115
Coordinates from ORCA-job 21
  O   0.31368235774646      4.63527495409583     -2.57390968471816
  C   -0.26025186236503      3.54917587624604     -2.44404683771622
  C   -1.80375534995747      3.42878675814811     -2.57599990536671
  C   -2.45526571985131      4.81395744426118     -2.61893122717364
  C   -2.59403406803514      5.15499754535243     -1.12594541102629
  C   -3.02329509648211      3.82147286056187     -0.49356684588288
  N   -2.42335948353976      2.80800201301902     -1.38315998716839
  C   -2.49673377910932      1.45539610831238     -1.26395058180786
  O   -1.93238693879081      0.68953010172422     -2.06023713054593
  N   0.38279388328928      2.38063563704010     -2.17232617650977
  C   1.82533294009344      2.35513498659453     -2.05665117271064
  C   2.35691145002480      1.11373082096036     -2.77977126358001
  N   3.71514804113626      1.02808020449413     -2.86332153489773
  C   4.39449797325667     -0.13286738442580     -3.44709723739233
  C   4.35565615937375     -1.29671657758416     -2.42770038374684
  N   3.17234436695817     -1.95701457904823     -2.39308938313200
  C   2.90034064480634     -3.06063538575388     -1.47787217269909
  C   2.88272248163511     -2.66025273748618      0.01263624922368
  C   2.11488433602220     -3.71830554541371      0.83713996401026
  C   0.62218864875065     -3.71508699486861      0.47038309718339
  N   -0.03399146171008     -2.53239817272995      0.66298724076537
  C   -1.43004595348719     -2.35581834763271      0.33303311035319
  C   -1.73542133909050     -0.85772863121902      0.48014159843009
  N   -2.99861668769955     -0.49978394080200      0.11855286980709
  C   -3.35686339567045      0.88933571562962     -0.10299085368684
  C   -4.85613419952715      0.96757574584706     -0.42139889944733
  O   -0.90758642921653     -0.04913918912160      0.91997629832514
  C   -2.39407093417071     -3.24632840418542      1.17769547761881
  C   -3.18237459301479     -4.28355327142309      0.35734049805484
  C   -3.92395929503434     -5.24618310700311      1.29388166839175
  C   -4.15344133367619     -3.62897773301740     -0.63729579267359
  O   0.06064080925275     -4.70974206918126      0.00094761817249
  C   2.39828452527484     -3.55724211781138      2.34755838363234
  C   2.00198642822071     -2.25227865715119      3.02718291010861
  C   0.68932338294715     -2.45881317027519      3.81546121748332
  C   -0.02191789325417     -1.15819955567478      4.19978654917990
  C   -1.40892953772767     -1.41927458054902      4.80099844950361
  C   -2.21204169870556     -0.17552649133674      5.21439580519803
  C   -2.45139128760796      0.84738622529788      4.08289888913424
  C   -1.42149336084229      1.98447315070613      4.02946779468848
  C   -1.59763860309186      2.91456707393351      2.82433514757781
  C   -0.71745943041266      4.16592636139097      2.87941273185401
  O   2.86493422389866     -4.48535398739107      2.98563477196356
  O   4.17237701093738     -2.52859008684429      0.55867167691271
  O   5.32722584600339     -1.55787557130786     -1.69735475740505
  C   5.82562544846224      0.21582988765793     -3.85686864882012
  C   5.90696739599969      1.32424806104200     -4.90915581772550
  O   1.60537612789611      0.24038590577747     -3.23799691025558
  C   2.33493279855090      2.42291821275977     -0.57810764232985
  C   2.12692776737121      1.10316439517707      0.17302030668448
  C   1.68467858296936      3.59796689803420      0.16110673216937
  H   -2.02505253930232      2.79046935281856     -3.45691634542498
  H   -3.44838208498686      4.75211479282062     -3.10967961415845
  H   -1.81748191876605      5.53176001079384     -3.16522021888988
  H   -1.60517065877068      5.46582709768910     -0.73201118793381
  H   -3.31643948728990      5.96741874763852     -0.91734941217230
  H   -2.66526630005736      3.69843270275800      0.54647429768190
  H   -4.13113019247543      3.72765007864366     -0.48508271705097
  H   -0.14478867091724      1.49220621547470     -2.23935572655067
  H   2.19414404095199      3.26798206485871     -2.57427646192249
  H   4.28374108058693      1.70849654322614     -2.35377398784072
  H   3.79667397929039     -0.42689930237800     -4.33595204292847
  H   2.38903947768628     -1.49473064392264     -2.88578193121789
  H   3.67167181220347     -3.85025238514085     -1.60804250242053
  H   1.92536430279067     -3.49666954992805     -1.77021725146125
  H   2.31888625646848     -1.69368209949250      0.07051949251824
  H   2.48620661874424     -4.72817072527481      0.57914560333857
  H   0.43814424298835     -1.68349877291671      0.99600707621449
  H   -1.57348052411430     -2.60842745484491     -0.74356178420145
  H   -3.53379705951938     -1.19681595197229     -0.40676212717683
  H   -3.12872684367078      1.45910883350460      0.82089412274790
  H   -5.44804354003400      0.53387000570999      0.40842722623305
  H   -5.18757405199112      2.01158517641321     -0.57155419262934
  H   -5.08215588624349      0.40595911932371     -1.35124007019246
  H   -3.10086631747050     -2.60708947704359      1.75191098605682
  H   -1.77751200425868     -3.77666568679454      1.93002805400222
  H   -2.42331615767645     -4.86013616220934     -0.21468683975558
  H   -3.21926641276045     -5.76177908654793      1.97737627016867
  H   -4.66691234036787     -4.70519738738575      1.91970913025046
  H   -4.47077603001657     -6.02452286723654      0.72327186512229
  H   -3.62931268906167     -2.98557615227093     -1.37813624484546
  H   -4.70046783045655     -4.39222351456766     -1.22722326486249
  H   -4.91665494694679     -3.01328917974355     -0.11060237099908
  H   1.89354131274747     -1.42717757787428      2.29163489701362
  H   2.82468678929316     -1.96229912913751      3.71127008216821
  H   0.90647505840047     -3.07772678676490      4.71134573719060
  H   -0.01166997261009     -3.06177887283273      3.19957812046618
  H   -0.12970326231105     -0.53376614569149      3.28633576937189
  H   0.60483868438601     -0.57267189451997      4.90974699079906
  H   -1.30654619520263     -2.09460824836736      5.67963593041421
  H   -2.00430113304554     -1.99251545584142      4.05348693118546
  H   -1.70450966712672      0.33312928188767      6.06518650868476
  H   -3.18839889438517     -0.52091617121755      5.61628804863059
  H   -3.46101505642909      1.30138142063222      4.19515302755465
  H   -2.46747817057705      0.31904290766681      3.10308038664010
  H   -0.39199639489425      1.56716962346944      4.01275002741733
  H   -1.49113650207231      2.57589594026965      4.97108649684734
  H   -2.66877820955427      3.21777794221623      2.75762845847408
  H   -1.37527485733984      2.33066064791594      1.90349171297955
  H   -0.83992610580702      4.80188375493920      1.97829217836587
  H   -0.95940085712624      4.79025950543011      3.76502546819363
  H   0.35609032291070      3.89611499708650      2.94727813337536
  H   4.76435636801882     -2.18820351513270     -0.16523697064546
  H   6.30057416553844     -0.71321260683454     -4.23326565778733
  H   6.39639562393945      0.47745063030319     -2.93991479448491
  H   6.96019167771215      1.54610227587850     -5.17190784625404
  H   5.37985497762506      1.03453136393384     -5.84173670925532
  H   5.44528713334260      2.26803442256806     -4.55367253756317
  H   3.42963696299299      2.62918669910733     -0.63723579123968
  H   2.73993681396377      0.28370409155106     -0.25235232912828
  H   2.42317432555621      1.20806201670261      1.23628331961511
  H   1.06197356576331      0.79557020476067      0.15680967729254
  H   1.78540596500556      4.54734841796452     -0.39860516197999
  H   0.60265115382036      3.40370066750710      0.30436038277733
  H   2.13803315410154      3.72048859559487      1.16487088517297
