115
Coordinates from ORCA-job 28
  O   4.11948731278823      3.24762072362519     -4.58694827516356
  C   3.59246650640621      3.01137669074716     -3.50159519617110
  C   2.96033806916033      4.15612630090715     -2.68568903446569
  C   4.03356518247918      5.04046383571927     -2.01185666776089
  C   4.13193423901033      4.45462260949308     -0.59359729956503
  C   2.67071092641713      4.14025257068335     -0.25565587207110
  N   2.12735571258447      3.70354419789439     -1.55910246769317
  C   0.96101008128252      3.03664883806548     -1.79463732245267
  O   0.57341693695200      2.80008972174407     -2.95387626026836
  N   3.52921121845855      1.76317901241326     -2.94235467412711
  C   3.93431372005404      0.57431092473777     -3.67578305534735
  C   2.70384043091927     -0.33074519408997     -3.92656394712669
  N   1.51113529787433      0.33231396996678     -3.99729508245809
  C   0.26754352938086     -0.40799512653730     -4.02284817500864
  C   0.25151326587975     -1.38511079898153     -2.81721397458442
  N   -0.57562467846670     -2.45052311477863     -2.92883068332943
  C   -0.83717943378070     -3.53885369029965     -1.98288060560805
  C   -0.38651478759794     -3.32399463083419     -0.52569022840635
  C   -1.10472148823645     -2.12822800186525      0.14418612898806
  C   -0.31033329812653     -1.35015497711747      1.20149434362365
  N   1.04344817928546     -1.28535727932012      0.98190416983789
  C   1.83782330419614     -0.23657049010066      1.60594003217974
  C   1.35618878999697      1.17310089477151      1.20022428418056
  N   0.95308290880522      1.29741272702107     -0.10709479302096
  C   0.22162756445476      2.47947396807209     -0.56570238655685
  C   -1.23404264237357      2.13613140381039     -0.87854566267203
  O   1.39043188270289      2.12300191228261      1.98667228719589
  C   3.31830294105516     -0.45565915052877      1.23691912136846
  C   4.30292543083531      0.64658241840574      1.66760354995422
  C   5.72665604752807      0.25828891190873      1.24351358998634
  C   4.22457540865477      0.95120218394970      3.17058093082263
  O   -0.86894798936208     -0.74153569334404      2.11672953185620
  C   -2.50778259558380     -2.57991402581326      0.60470365854646
  C   -2.71825929104803     -3.09323307075371      2.01616821489269
  C   -3.70067756565851     -2.20588652657703      2.80127378207317
  C   -4.01847449581252     -2.75521172194783      4.19497267706428
  C   -4.98789817136734     -1.87155040008283      4.98844195789769
  C   -5.31275264930477     -2.40916157984140      6.38682955828405
  C   -6.28115558789668     -1.52487940486590      7.18097629688620
  C   -6.60827781456749     -2.06245173353129      8.57887455482563
  C   -7.57690339350776     -1.17779940597108      9.37428116722877
  C   -7.89807688900082     -1.72332259350195     10.76908601138777
  O   -3.42237537922030     -2.54834679450325     -0.20995437826815
  O   -0.71720133429300     -4.49268425192196      0.22360199181064
  O   0.90326479777175     -1.11270465785928     -1.79178206528711
  C   -0.02905303454866     -1.04543032342912     -5.39818280933475
  C   0.03015613704918     -0.02626311074830     -6.53832429597469
  O   2.77722047717346     -1.55666839312092     -4.06199456422025
  C   5.12908207500353     -0.16725502393032     -3.02044261510263
  C   5.75642388488990     -1.17762283021760     -3.99327724362385
  C   6.18407990034360      0.84045471564332     -2.54008146402342
  H   2.34784443407347      4.71477076283041     -3.42154887612829
  H   3.67942902023780      6.09110065108265     -1.97012781335326
  H   4.98149347642398      5.02661099401823     -2.58175346436180
  H   4.72824015992238      3.51700083099374     -0.60232120376331
  H   4.59732364820713      5.14139326092948      0.13917103021650
  H   2.53599835980620      3.37503565481977      0.53173095257305
  H   2.13901374280128      5.05717807905280      0.08663543305160
  H   3.07285233163009      1.65567689302957     -2.03168674732439
  H   4.26967575388043      0.96441085678353     -4.66445652715401
  H   1.43783991475998      1.33567924977728     -3.77210867214006
  H   -0.52473386412111      0.34247095919739     -3.80227898000865
  H   -1.02810880510576     -2.55704910674901     -3.83879226993231
  H   -0.34256846547306     -4.46477430466020     -2.35690357985390
  H   -1.93138972382693     -3.72415794301288     -1.96655292916545
  H   0.70917182952644     -3.16385531600324     -0.51088059247267
  H   -1.30568747576889     -1.37695832199242     -0.64718264847651
  H   1.33473544660615     -1.54882436321177      0.03103598575460
  H   1.69006613272209     -0.27774554222765      2.70190739928834
  H   0.90281728576355      0.46007014765305     -0.71424411849736
  H   0.27343046808796      3.19986086380909      0.27625257008873
  H   -1.71268630559925      1.70237165618659      0.02045513662795
  H   -1.79756635025834      3.03657981088398     -1.19190052762128
  H   -1.29182883933612      1.40311590045565     -1.70688305431752
  H   3.38476954061900     -0.58208636585382      0.13187007824612
  H   3.63243590702969     -1.42752695096090      1.67793397601455
  H   4.02766700452158      1.57724150156152      1.11888932556128
  H   5.78592069133643      0.03800836164158      0.15864850988177
  H   6.44806117238330      1.07136891410155      1.46356991876609
  H   6.06723185169386     -0.64787897911735      1.78865539565876
  H   3.23668459176162      1.37053101985841      3.44233297580383
  H   4.39990691732318      0.03147923991904      3.76954698005369
  H   4.99780405921095      1.69122962594277      3.46236629893882
  H   -1.75519955316286     -3.18082192511214      2.55294247474388
  H   -3.14037752583455     -4.11572363365356      1.90733683045606
  H   -4.63518679818043     -2.10574898843597      2.20763080867573
  H   -3.25750082317228     -1.19197937247686      2.88691007376232
  H   -3.07162894034867     -2.87035794692661      4.76984215896644
  H   -4.44238078165613     -3.78177398533924      4.10426445825274
  H   -5.93266437094416     -1.75161380794455      4.41056879732039
  H   -4.56020028373529     -0.84712737371152      5.07638015178144
  H   -4.36718722352375     -2.52972268421890      6.96341544903575
  H   -5.73949919175669     -3.43449317637551      6.29758793790932
  H   -7.22578753620791     -1.40273270843690      6.60306566479052
  H   -5.85337517790710     -0.50023293275415      7.27104316476460
  H   -5.66342372169540     -2.18514769965012      9.15668129799899
  H   -7.03614853535169     -3.08741148091854      8.48858017295502
  H   -8.51892955828070     -1.05575923781592      8.79352705257604
  H   -7.14691760733724     -0.15459758918387      9.46188513697158
  H   -8.59956352495744     -1.06308581082882     11.31895474729008
  H   -8.36285338045764     -2.73035678285874     10.71088791920935
  H   -6.97906544023784     -1.82145443944806     11.38493886305347
  H   -0.10584449744673     -5.20431868888713     -0.03973369823263
  H   -1.04725178255914     -1.49658805847883     -5.38176226042157
  H   0.70253571102589     -1.86197704530410     -5.56586211411666
  H   -0.18159831524930     -0.50777434510298     -7.51349099455588
  H   -0.70776929793053      0.78984843520037     -6.39249017887140
  H   1.03345314913286      0.43933961914744     -6.59641695745477
  H   4.73539808296098     -0.72640849201761     -2.13971190044939
  H   5.00860952646535     -1.91676376291509     -4.33093129139687
  H   6.16307524221831     -0.65192182074366     -4.88400695260817
  H   6.59814721068199     -1.71268834448349     -3.50790422504739
  H   5.78796256068954      1.52846846812003     -1.76781205366706
  H   7.05753484468523      0.31139194715152     -2.10864619983439
  H   6.54524398959447      1.46292108821730     -3.38544103701109
