115
Coordinates from ORCA-job 30
  O   0.22310229037478      3.91798120877456     -2.50907668743396
  C   0.27791027945960      2.68050160736446     -2.53728354399083
  C   0.88906053332781      1.97641863731998     -3.75032581772407
  C   -0.18873354185953      1.57570509566615     -4.78757604143348
  C   0.39995427383384      0.32625336544044     -5.46222649361804
  C   1.07170648502712     -0.40037928324070     -4.29179639613457
  N   1.58342212961350      0.70904053510273     -3.46907601939627
  C   2.71067727603860      0.73567196075240     -2.69416297831216
  O   3.01751502904716      1.74787021656632     -2.04716190675765
  N   -0.30366712242117      1.89343453754144     -1.58506886607672
  C   -1.08054083964099      2.50931710516429     -0.50562369801893
  C   -0.15491300254128      2.86434266215355      0.68434812667268
  N   0.81929431081889      3.75827668506704      0.34181293942777
  C   1.84947303444503      4.19008717899627      1.28775627657408
  C   2.45370088125253      2.94539418365662      1.98574745054629
  N   2.85246341822759      1.95308007350057      1.14713029838815
  C   3.16356293689121      0.64041823724711      1.69109503461602
  C   1.99492526028317      0.06826749263513      2.55529917606264
  C   1.76131251752971     -1.41430192132206      2.28073956506798
  C   1.33082325819175     -1.60276568694274      0.82523314237880
  N   1.48096839326836     -2.85459027722333      0.32983829607063
  C   1.23698022855793     -3.26782062857868     -1.05893411542420
  C   2.25288255698259     -2.68253824555193     -2.08343876834768
  N   2.72004904193952     -1.44546646730105     -1.74187281607699
  C   3.51880615379591     -0.57691636994462     -2.59635101017923
  C   4.91746857900928     -0.32419825492834     -2.03547866313261
  O   2.53660567096571     -3.28584859443286     -3.11723395004998
  C   -0.19725675217006     -2.97046091081918     -1.55321459101872
  C   -1.33209628704526     -3.39508436026005     -0.60514015348135
  C   -2.68857904137940     -3.09426063382103     -1.25774025622927
  C   -1.23448152584650     -4.86241124893968     -0.16849313498264
  O   0.93971803594787     -0.63835688144436      0.13264832590144
  C   0.71512483875470     -2.13153135926044      3.16302027420033
  C   -0.44538716552251     -1.33453545611396      3.72253933977472
  C   -1.80166565627872     -1.89257086057342      3.23399318633261
  C   -2.26374689280537     -3.15583045533007      3.96871985084479
  C   -3.54202921132107     -3.80786511517793      3.41438681136081
  C   -4.75847262397302     -2.86506311306266      3.28515288550642
  C   -4.90513943487398     -2.23322601630168      1.89307007331915
  C   -5.93852032652382     -1.10646940334009      1.80853284405919
  C   -6.12206619026686     -0.54970288963169      0.39049093827180
  C   -7.10327620866978      0.62307282013754      0.31355979486630
  O   0.80737703712812     -3.35007468539100      3.27820720319585
  O   2.24625012877720      0.21551084785127      3.93795812432217
  O   2.56565553622097      2.86348203695963      3.21890556685944
  C   1.33773422401913      5.22637395817292      2.30285077953661
  C   2.45882403707785      5.96291746785543      3.04022225822427
  O   -0.25850151366664      2.37774568140047      1.81546362789941
  C   -2.33948514111562      1.69080397909061     -0.15216980164384
  C   -2.03800951698603      0.28197528539970      0.36979033191292
  C   -3.23848590831897      2.46808838041581      0.82204848628448
  H   1.61233076132837      2.70762697680788     -4.16745450291367
  H   -0.41402226284246      2.40492662007025     -5.48360217322712
  H   -1.12787621901664      1.31462987103172     -4.25602114843268
  H   -0.36116574975262     -0.29639826407005     -5.97104547548224
  H   1.16370181940418      0.61496198107162     -6.21449100636502
  H   0.33106091049647     -0.99539914648324     -3.71233270196018
  H   1.87416060736805     -1.10129054243935     -4.58910899513223
  H   -0.01370768226394      0.91460906005572     -1.48170140882901
  H   -1.41177540370508      3.48194155048582     -0.92823348313374
  H   0.79167842241420      4.14834870598051     -0.61368849370791
  H   2.65602411718342      4.64719010436298      0.67319335215257
  H   2.68339535191571      2.03766452341929      0.13649026860727
  H   4.05868023808482      0.69054577458726      2.34767001190620
  H   3.41629273815248     -0.01601123827958      0.83698751270029
  H   1.07852196603188      0.61815743528330      2.24253536440372
  H   2.70035542586445     -1.98559900113870      2.44267355490733
  H   1.75049284008227     -3.57159445647076      1.01100425279120
  H   1.40360576704210     -4.36097791205766     -1.08668767536772
  H   2.18473394388614     -0.95703052990219     -1.00481471891888
  H   3.59267986473533     -1.07371216516318     -3.58628818336585
  H   5.44388963542274     -1.28736095326544     -1.89387490504971
  H   5.50750000914142      0.30866706430304     -2.72720959504147
  H   4.85832657109572      0.20804938164063     -1.06674416199277
  H   -0.30276165764345     -3.48407610824484     -2.53305181849813
  H   -0.28593401153509     -1.88193529834160     -1.74695135561865
  H   -1.25397699450072     -2.76529001987000      0.30960771451265
  H   -2.76805822489918     -2.02862778767526     -1.55426003852855
  H   -2.83749483519770     -3.71218071798772     -2.16891867227695
  H   -3.52334925273888     -3.30881845528122     -0.56164684744430
  H   -0.31867588788287     -5.06456689944474      0.42259453540400
  H   -2.09585987661975     -5.13654427395123      0.47385605345915
  H   -1.23767710822510     -5.54561502855780     -1.04485820552063
  H   -0.33523897402801     -0.26602724052515      3.46190609342928
  H   -0.38523487095209     -1.39340798006642      4.83079806475862
  H   -1.73634857962600     -2.09251898251776      2.14147313592190
  H   -2.55665351937048     -1.08603973605677      3.34125902162878
  H   -2.42367101702599     -2.89343011623651      5.03978705924259
  H   -1.43620024968210     -3.89437721913363      3.95528854900016
  H   -3.79726528995588     -4.66522257396507      4.07224187051652
  H   -3.32527887117729     -4.25548428118217      2.41722969113917
  H   -4.68833729441297     -2.06224925440061      4.05449584744417
  H   -5.69490386757579     -3.41514138056676      3.52256904499282
  H   -5.16819526221295     -3.03326870044390      1.16386388527258
  H   -3.92272339858629     -1.84093805131860      1.55474640694122
  H   -5.63219919548956     -0.28069824888505      2.49122647134832
  H   -6.91985096752434     -1.46500497929078      2.19544421273749
  H   -6.45959569686213     -1.36957960535073     -0.28245824823278
  H   -5.13070687540753     -0.23258619398191     -0.00484845517414
  H   -7.21706791028919      0.99841329520719     -0.72387517346341
  H   -8.11105143747704      0.33070689098092      0.67670754921183
  H   -6.76299656423710      1.47404222785017      0.94089180344090
  H   2.37687442202992      1.19321810893916      4.03727205413272
  H   0.67742414845648      4.69918986010658      3.02045669126423
  H   0.70654997758537      5.94810253064996      1.74228844241000
  H   2.04404069577897      6.72003558700518      3.73582729784663
  H   3.06866391585360      5.25334550653661      3.63119702934652
  H   3.12975951730035      6.49435157814442      2.33143567122650
  H   -2.88728599189517      1.59019365295458     -1.11720442200306
  H   -1.42817494484435     -0.31009104355238     -0.33891838584031
  H   -1.48018628080323      0.33535185691107      1.32156861783665
  H   -2.98137145485147     -0.27356843163396      0.53885472741906
  H   -3.47879713725144      3.48086375359025      0.43701906685557
  H   -4.19567734159087      1.93014512544023      0.97541942015302
  H   -2.74158998028224      2.57840167301755      1.80530460614468
