115
Coordinates from ORCA-job 31
  O   1.57558511417199      3.04939156009607     -4.57208768324457
  C   1.38284335398382      1.86673486218714     -4.24238382904058
  C   2.37001715418231      0.79004541890240     -4.70585873419663
  C   2.34443789244501      0.65541173887954     -6.24189602275513
  C   1.27658785750708     -0.42776433172932     -6.45787165813908
  C   1.57380365845387     -1.43213700229636     -5.33264723560185
  N   2.09353228618271     -0.57862147337020     -4.24353327132128
  C   2.54846362505306     -0.99025413673391     -3.00730707256710
  O   2.83770456280084     -0.17253634781455     -2.12943433572856
  N   0.33635510573938      1.47018436807263     -3.47962805466360
  C   -0.67370403866419      2.40887435135997     -2.98562183154515
  C   -0.15002342141390      3.14031423965445     -1.71990893813327
  N   1.03096245200822      3.78070324295537     -1.91543601403420
  C   1.80197806767027      4.37393651522370     -0.82198352898587
  C   2.04977279203963      3.34349851943762      0.31808586042618
  N   2.18330346458601      2.04557916947737     -0.10002739682355
  C   2.06699668198159      0.92476473263655      0.81032321276749
  C   0.59988229990611      0.44410830185760      0.87737205851576
  C   0.41628645223727     -0.82770944172917      1.74737668986037
  C   1.09222635952583     -2.01738826538586      1.07362250237354
  N   2.36103173855755     -2.27442977746401      1.51128385704547
  C   3.30465525956033     -3.22951393105875      0.90705626639394
  C   3.72199722560356     -2.82836167335247     -0.54041135188536
  N   2.69717637780628     -2.91316486051843     -1.44374331690921
  C   2.74464427759445     -2.51551959424180     -2.83531705483415
  C   4.03777728090160     -2.95477899838061     -3.55356874535288
  O   4.89282513408354     -2.53903489125556     -0.78888664166700
  C   2.80856402566506     -4.68477043589848      1.01725514709832
  C   3.72044417649359     -5.72571578772885      0.33974278333050
  C   5.17539675099277     -5.64821226181694      0.82853566541960
  C   3.13544988502512     -7.13242795971006      0.53359112140218
  O   0.54849694623632     -2.65207913161533      0.15625968583540
  C   -1.10807605448337     -1.03475693131870      1.92138067959113
  C   -1.63090775011658     -0.81851540083077      3.32761704273278
  C   -3.14164405574084     -0.98328280473108      3.46598872752015
  C   -3.65585363984869     -0.70620760957213      4.88252572858511
  C   -5.17578786313177     -0.85127080476382      5.02044776093928
  C   -5.70013829642025     -0.56778805893581      6.43270665445913
  C   -7.22062420000583     -0.70921397872722      6.56902552111959
  C   -7.74651626829448     -0.42188961328517      7.98004875578624
  C   -9.26807579001341     -0.56221658409107      8.11685835091806
  C   -9.78403148328658     -0.27194403109357      9.52955862751861
  O   -1.82538858575973     -1.30293721820551      0.97445102086717
  O   -0.25086743705064      1.42172255423756      1.43005791871353
  O   2.14217805088166      3.69785987422978      1.49027642218375
  C   1.17695116736538      5.66267657092023     -0.26617719178668
  C   1.07004264445141      6.77223125904687     -1.31220634611491
  O   -0.74609005986921      3.10692027997748     -0.63262077720747
  C   -2.03642772797821      1.71574598919819     -2.78708441816166
  C   -1.98223320942430      0.51879708806411     -1.82593632844557
  C   -2.63306550606376      1.32609541722576     -4.14793946025048
  H   3.35631320939974      1.11885703748105     -4.31898477613629
  H   3.33471382772261      0.30709259717976     -6.60068413601751
  H   2.12169888186586      1.62341755426504     -6.72768155181141
  H   0.26264993129428      0.00491712417024     -6.32687634036704
  H   1.31471262096863     -0.89735245818864     -7.45953780754244
  H   0.67394355256057     -1.99227681766462     -5.00543802830651
  H   2.33433062642032     -2.17474713285420     -5.65864875928530
  H   0.30970857229908      0.50009828542399     -3.15367644389643
  H   -0.76740281739871      3.18560070269388     -3.77647934010772
  H   1.38544555278922      3.81437386846337     -2.88804170428288
  H   2.79720758316874      4.61687891464643     -1.25652362372257
  H   2.14589944952270      1.81934242656346     -1.09807789800689
  H   2.38463438048825      1.26952600011362      1.81562511506421
  H   2.73040664529715      0.11349842451586      0.45320470396684
  H   0.28027582657297      0.16416328856259     -0.15590620577241
  H   0.87603651278856     -0.63091872256631      2.73941412447420
  H   2.73964487764243     -1.64275633120406      2.21798117679520
  H   4.24358450853760     -3.11707474688478      1.47943648582715
  H   1.75276447498225     -2.99728013172235     -1.01171761999434
  H   1.88607130031885     -3.02253928055230     -3.32561524708780
  H   4.15911586363563     -4.05165604964807     -3.45917503936291
  H   3.99897602256800     -2.69959505564615     -4.63049810450411
  H   4.91151997613949     -2.47094763982141     -3.08442970707593
  H   1.78893211342909     -4.74866375115910      0.58697944758802
  H   2.70865929000983     -4.92462951915369      2.09976254599001
  H   3.71619526679876     -5.50593920922560     -0.75225074482115
  H   5.64786199301684     -4.68295790794812      0.55779586607630
  H   5.23206459898626     -5.77130193247949      1.93216584304896
  H   5.78717108988621     -6.45421681487439      0.37390937180697
  H   2.09082153272883     -7.19386269952252      0.16438060528221
  H   3.73308707922376     -7.89540168389582     -0.00600429025417
  H   3.12692488740008     -7.41351177160382      1.60873147986236
  H   -1.30553949427863      0.21044058961910      3.60628091606653
  H   -1.07422461940626     -1.49560302447228      4.01747226094113
  H   -3.42862690554553     -2.00918772928062      3.14824741096083
  H   -3.63858973811221     -0.30429083654353      2.74047344442178
  H   -3.35459358376117      0.32099711777423      5.19066990957748
  H   -3.15407392748266     -1.39207785982317      5.60343721687390
  H   -5.47658280877055     -1.87913069349243      4.71399636197965
  H   -5.67556088791363     -0.16739341771452      4.29722613181752
  H   -5.39721273238106      0.45986888128656      6.73793930522157
  H   -5.20031957531613     -1.25217345404754      7.15596781678726
  H   -7.52339946460583     -1.73745449899047      6.26525323509361
  H   -7.71957348279505     -0.02621621856166      5.84401094891167
  H   -7.44321711860470      0.60644121334084      8.28354711355498
  H   -7.24741562153364     -1.10481086637547      8.70545380662985
  H   -9.56782929613237     -1.59027713471714      7.81216359587125
  H   -9.76330343619130      0.11988695094243      7.38953657382218
  H   -10.88575398464881     -0.38127377433888      9.59692230540944
  H   -9.33336163709428     -0.96283692175293     10.27321668430397
  H   -9.53059350380559      0.76181286502563      9.84659781702408
  H   -0.40712815329703      2.13217080794436      0.75563321722113
  H   1.79583609156266      5.97552507710098      0.59772285314664
  H   0.17984970351147      5.40747830252379      0.14607330188336
  H   0.60501280990656      7.68260632986795     -0.88377424112322
  H   2.06752507805239      7.06071687905539     -1.70744309505393
  H   0.44893503236681      6.45790877605371     -2.17687892078031
  H   -2.68491327887484      2.48643153192691     -2.31876254425512
  H   -1.63192492686563      0.81462693772694     -0.82235723044782
  H   -2.98816824139462      0.07292657332108     -1.70105633638597
  H   -1.33032111078174     -0.30385504494152     -2.19472844710064
  H   -2.73023680455313      2.20199487934714     -4.82198837132382
  H   -1.99521069281641      0.57662633179763     -4.66331356029266
  H   -3.63802765362874      0.87576214694879     -4.02381970019053
