115
Coordinates from ORCA-job 3
  O   2.61437305929870      1.66037756831420     -4.34838141954077
  C   2.31064056331553      2.18031597703878     -3.27661637008773
  C   1.53802538567940      3.50784357162443     -3.29539444666018
  C   2.49939971042666      4.66821908453531     -3.65665521410613
  C   1.95176451299558      5.86911027588021     -2.87397895896282
  C   1.46751867091562      5.23519298457048     -1.56336277739709
  N   0.95478157528175      3.92542754204642     -2.00864644786309
  C   -0.00249820752624      3.18280807951933     -1.40991971876004
  O   -0.44059378172315      2.13369338076226     -1.93172570956087
  N   2.71530780894338      1.70795888421148     -2.06344698339022
  C   3.54684972999421      0.50898436142006     -1.99794927628962
  C   2.92683975371072     -0.67323481034061     -2.77749446555007
  N   1.62529790762205     -0.96004314667311     -2.45259621519297
  C   0.98469450619081     -2.13534338004564     -3.02918026648178
  C   -0.54263124383011     -2.06994481113745     -2.86919463053743
  N   -1.09192662961944     -0.83449790430894     -2.65919234809334
  C   -2.49670052908505     -0.70231307560223     -2.33284661856652
  C   -2.85267623672883     -0.23539310280484     -0.90781609904209
  C   -2.26541127926798     -1.05636352322887      0.30190001561695
  C   -0.89544149859309     -0.52472447388769      0.68197315463388
  N   -0.82384068326488      0.04775969141840      1.92628453870095
  C   0.34978223073654      0.82497253434583      2.32174235124376
  C   0.55563132350449      1.98762613925441      1.31437279690168
  N   -0.60595682313943      2.56687547247699      0.88244057905886
  C   -0.53862961471610      3.67714452226128     -0.05267335926831
  C   -1.91679421952443      4.32823453509373     -0.22090760937764
  O   1.67098386036233      2.42117069922650      1.00397160513863
  C   1.61344677535696     -0.01921806188857      2.52125993683311
  C   1.47780988328189     -1.11143090786315      3.59534913499940
  C   1.35714448360710     -0.53021972486169      5.01121337447243
  C   2.65082106722960     -2.09682372109646      3.49842905076838
  O   0.09016484018063     -0.50564860197841     -0.06599260955960
  C   -2.44297963327471     -2.58582605797682      0.15874459246534
  C   -1.25073015906543     -3.52173534075589      0.16824010790854
  C   -1.47505681088788     -4.78274679756101      1.02133813843974
  C   -1.15964663514726     -4.57799037329925      2.51154369756359
  C   -1.89678165070690     -3.39935510018939      3.15486581504889
  C   -1.60901927517507     -3.20634371340077      4.64732236932656
  C   -2.14900299234725     -1.87968332379967      5.19219154577561
  C   -1.90380756629301     -1.66083925214607      6.68794394769373
  C   -2.34410767239137     -0.28029096127751      7.18993812840988
  C   -2.09106853553267     -0.06365496632092      8.68460047684328
  O   -3.58892892996433     -2.99982679530799      0.04520590053707
  O   -2.59039164301637      1.14434529549699     -0.68637440270961
  O   -1.23623042072887     -3.09512150489966     -2.91534568099561
  C   1.56626343358389     -3.45625550544863     -2.46626109545900
  C   1.32373294569681     -4.68483201743797     -3.34559025985392
  O   3.58355037310772     -1.32656550201540     -3.58504958611425
  C   3.82794982305863      0.15281081136014     -0.51961716394964
  C   4.44059106901098     -1.24550168752963     -0.37320899066933
  C   4.70496234784648      1.22128985046997      0.14825258544100
  H   0.73115977963457      3.38156074858051     -4.04633648727534
  H   2.55637775930174      4.82523147381369     -4.74896073027490
  H   3.52146377666047      4.41875746217902     -3.30334812469537
  H   2.70359917951464      6.66421509531264     -2.70523947816198
  H   1.09023154211020      6.32231388740439     -3.40769858629597
  H   2.29863179086715      5.09473975545765     -0.83669105609913
  H   0.67679729519056      5.83156511473784     -1.07136329218418
  H   2.36107779952838      2.11550517871914     -1.18938476987641
  H   4.50500325965702      0.69478766884803     -2.53006330854978
  H   1.22433505474478     -0.58670728363073     -1.58137720252314
  H   1.21146826185276     -2.11399095533159     -4.11968952437213
  H   -0.48072728798555     -0.01204077121789     -2.61851959086101
  H   -2.94354702895474     -1.70200438599904     -2.50434328162758
  H   -2.98985190881512      0.01350516145812     -3.02646907024339
  H   -3.95223279241833     -0.37557520839371     -0.83357044824091
  H   -2.95536764799052     -0.80938224483497      1.13584036292511
  H   -1.63422608257385      0.00010906791513      2.54492470217229
  H   0.08128924280638      1.31329442381721      3.28324895880447
  H   -1.46265301020372      1.99338518370110      0.84520592067377
  H   0.18342641711956      4.39987742494551      0.37192811426234
  H   -2.28575656357362      4.69801859243887      0.75582980986645
  H   -1.86075898096934      5.18414813461413     -0.92212690984625
  H   -2.64459996450877      3.59469572862685     -0.62115312526037
  H   2.44667280661396      0.67204882402615      2.76562735015417
  H   1.86484087989511     -0.48438595368683      1.55015812039245
  H   0.54645825982331     -1.68026393102638      3.37430737120457
  H   0.48557569422370      0.14851245110490      5.12039543504303
  H   1.23689114727121     -1.33332729109024      5.76621772527451
  H   2.26665829159189      0.04882786495662      5.27904140131226
  H   2.70629056886901     -2.55748915340095      2.49106010755263
  H   3.61838608207452     -1.58359681757493      3.68557384457889
  H   2.55512463996576     -2.91429249601542      4.24217536321070
  H   -0.31910975626086     -2.99068716043565      0.44825383547083
  H   -1.13794767690736     -3.80372171964719     -0.90320700018312
  H   -0.84749647695318     -5.60698910763617      0.62545749790262
  H   -2.53192532978560     -5.09685345892452      0.88614489235890
  H   -0.06370853526830     -4.41896628918584      2.63645648432700
  H   -1.39514088633679     -5.51222060025967      3.06760187708684
  H   -2.99236639769697     -3.49938343367782      2.98952704762874
  H   -1.59758991557028     -2.46597625736826      2.62903082042446
  H   -0.50945058068219     -3.24892226161872      4.81956219014979
  H   -2.03594984601223     -4.05447670601465      5.22778923183360
  H   -3.23962532164922     -1.80489804587973      4.97836849664953
  H   -1.67352681949637     -1.04461184645377      4.62503484652541
  H   -0.82090091144368     -1.80059068540367      6.90562601232915
  H   -2.42974005212194     -2.45295151044011      7.26742875334341
  H   -3.42524123644128     -0.13691921630023      6.96617129277306
  H   -1.81147743029952      0.50328409032219      6.60366818925573
  H   -2.41478423248667      0.94397846926873      9.01578102869359
  H   -2.63952223004145     -0.80934813345241      9.29767445986724
  H   -1.01271271098681     -0.16638340497597      8.92873401365878
  H   -1.76741334711330      1.41914209886371     -1.19370451970168
  H   1.16837941914752     -3.61457487881928     -1.44154857744944
  H   2.65780897642465     -3.28848229829361     -2.37478532828635
  H   1.80087058434091     -5.58497703377362     -2.90635040159997
  H   0.24247447563601     -4.87941171419967     -3.46938635812801
  H   1.76630672007935     -4.53224763957903     -4.35248678201177
  H   2.84227154352165      0.15419988719369     -0.00496820873623
  H   3.74470457172089     -2.03625315341057     -0.71545811085264
  H   5.37310456994290     -1.34248787632488     -0.96655889687110
  H   4.68616287810294     -1.44734568169449      0.68916783979915
  H   4.25140226739521      2.22925382253640      0.08858851996300
  H   4.84751794956837      0.99169692680414      1.22370827893641
  H   5.70712250696179      1.25950895208285     -0.32894614597839
