115
Coordinates from ORCA-job 5
  O   -1.31420414621909      1.36109720543527     -0.32535417597526
  C   -1.32893305175513      1.60258983212489     -1.55528575840877
  C   -1.08752171751127      0.49149890835368     -2.57734783826199
  C   -2.10573026504048     -0.67523325897253     -2.45376394511850
  C   -1.31058394119647     -1.80588505065667     -1.77778843567329
  C   0.10733342737197     -1.61402621055778     -2.31960581619533
  N   0.21882017734014     -0.14738766472277     -2.35829909585165
  C   1.33354869321520      0.64637252497564     -2.36958868718859
  O   1.21013483820535      1.88094362312245     -2.42164077360131
  N   -1.60984261927490      2.82490862580186     -2.06206195716283
  C   -1.67873941993972      4.08678888475799     -1.29902441790432
  C   -0.25813929323715      4.46922105150248     -0.79545391684693
  N   0.24544039658146      3.60572002975775      0.14458276615532
  C   1.69347250457454      3.48651003177051      0.35286610422655
  C   1.96698005378244      2.12920168698007      1.00626072161621
  N   1.12585348632727      1.79283400610105      2.02849213435845
  C   1.19340971787534      0.47573043694106      2.63373977349506
  C   0.62029348044143     -0.60430124159767      1.69389242435162
  C   1.00554197791816     -2.02659171736151      2.23778821977340
  C   1.71164007428678     -2.71613547680309      1.07447921829213
  N   3.06560890639867     -2.49638806182732      1.06054704687443
  C   3.89977038755601     -2.85569898736127     -0.08409342280470
  C   3.43225167001792     -2.14510724159888     -1.38029679168242
  N   2.95899452836967     -0.86504136491337     -1.22118437411258
  C   2.71709944823089     -0.03130330081784     -2.39494734951960
  C   3.82643854210438      1.00696881843060     -2.57991597831964
  O   3.52503734449457     -2.69264036905425     -2.47810317105029
  C   4.02494480588176     -4.37116809214592     -0.29909295246192
  C   4.53332435834144     -5.15106716131527      0.92570990291585
  C   5.93339895157034     -4.70396804069479      1.37388397950429
  C   4.50568561683962     -6.65868102130256      0.63408729320884
  O   1.12878150900667     -3.28971972762758      0.14999234085919
  C   -0.18037723501126     -2.77128075349024      2.88792730355789
  C   -1.29198246760598     -3.34428031814002      2.02728395414908
  C   -2.64021581152583     -2.71382803484347      2.41759373237999
  C   -3.83274951846614     -3.11797218689674      1.53672655102491
  C   -4.89338461659359     -2.00238205536774      1.51963959173433
  C   -4.48707267808819     -0.81470502618907      0.61533537125835
  C   -4.86142392210700      0.57787717995000      1.14840368300211
  C   -3.89972377345005      1.07793284539647      2.23433364928822
  C   -4.26384109765718      2.44370412368642      2.82838909645100
  C   -3.14257444756759      3.03822111001640      3.68568105170978
  O   -0.20883903810118     -2.84546526210076      4.10887191733957
  O   -0.77128494506995     -0.46782208664595      1.53701513251467
  O   2.89953383647320      1.39021276194283      0.65331318588014
  C   2.26719740795438      4.65194612126657      1.18666922791841
  C   3.78594387875863      4.58056387269933      1.35412917336721
  O   0.34129602898824      5.44214333241160     -1.24400289177065
  C   -2.78640792689941      4.08945966849399     -0.22005571893738
  C   -2.72892158390746      5.38815763078656      0.59398953393659
  C   -4.15865027039865      3.89002361745845     -0.87676794269928
  H   -1.11280688188881      0.94529800336397     -3.59374107696028
  H   -2.43400926653774     -0.97646406740293     -3.46888601469221
  H   -3.00706310424818     -0.38085912095128     -1.88313809272579
  H   -1.29454515113869     -1.66576844452398     -0.67822573058701
  H   -1.71878537691083     -2.81287158363789     -1.98663101173547
  H   0.86817194693503     -2.06563000964063     -1.66274233049056
  H   0.22457767932314     -2.04330733078487     -3.34116420840591
  H   -1.36560883551675      2.93053684092960     -3.04912479166890
  H   -1.91864056712349      4.87397603740271     -2.04100360389722
  H   -0.29910844061013      2.73029487020031      0.23224485041014
  H   2.19914589935591      3.45567019103361     -0.63529712357634
  H   0.34618941469991      2.41517380044731      2.25179922094904
  H   0.62712103141749      0.47282557004388      3.58548880266835
  H   2.25803099653431      0.25236620797615      2.84938823660864
  H   1.11514609226471     -0.46815774141053      0.70653522603233
  H   1.72007099574479     -1.89808267181575      3.07565619064399
  H   3.49661934620899     -2.05055495644097      1.87025789537651
  H   4.90453539699491     -2.43317736877480      0.13369362313501
  H   3.03471719165427     -0.37047027157876     -0.32022707055316
  H   2.72164855292258     -0.74756890649701     -3.24643343267538
  H   4.79509152292153      0.48785195783809     -2.71684610368490
  H   3.62982475938403      1.64432122579080     -3.46246071392952
  H   3.88530780203477      1.65619955093993     -1.68527636205284
  H   4.69849981461158     -4.52883346068789     -1.16669542732400
  H   3.03040612088521     -4.75197738363032     -0.60342195241604
  H   3.82701198444239     -4.95673811830622      1.76551428108832
  H   5.96138297126917     -3.63813320137316      1.68355165872042
  H   6.28824644707818     -5.30119851043541      2.23871365354015
  H   6.67195426569221     -4.83148000111119      0.55316393134822
  H   3.48975632906315     -6.99311015694602      0.34043103990162
  H   5.19481096301149     -6.91311382127930     -0.19959704462256
  H   4.81685249516447     -7.24989683506800      1.51980294775270
  H   -1.30751888877986     -4.44294874521859      2.20509273205735
  H   -1.06441124582453     -3.18863332436958      0.95723621250037
  H   -2.50314241065547     -1.61692195585238      2.35515511822601
  H   -2.85317124083038     -2.94027322941250      3.48324317118188
  H   -4.27022789357082     -4.07709653228321      1.88867548250901
  H   -3.49092392715272     -3.30551237390769      0.49342336561261
  H   -5.04800175930633     -1.64828170547906      2.56373950169426
  H   -5.87771029034955     -2.39961347835541      1.19188343623901
  H   -4.92981578183128     -0.96594697617183     -0.39300815181725
  H   -3.38533968294438     -0.82850956509193      0.46478590464436
  H   -5.90750618448586      0.57122594534702      1.53189013440006
  H   -4.85198123721791      1.30846606957960      0.31088604885149
  H   -2.87770973800716      1.12855225788684      1.79957160599160
  H   -3.82692492591745      0.32924793849299      3.05470102026509
  H   -5.19634356676935      2.35596206290019      3.42904967695395
  H   -4.50916025569946      3.14932895387855      2.00410785794802
  H   -3.42637516175646      4.01461883298225      4.12852237474188
  H   -2.86574630916421      2.35751733209230      4.51802478755809
  H   -2.22733863407791      3.20388837667921      3.07649775398534
  H   -0.95310943700429      0.13741511472074      0.76851681665999
  H   1.75927173633976      4.66615270259432      2.17611809837296
  H   1.97519493367404      5.58186734781673      0.65893991252752
  H   4.16190714721752      5.45256805030474      1.92539145622473
  H   4.10476286988118      3.66235938317529      1.88862576235248
  H   4.29490887794552      4.57848011309039      0.36832989839936
  H   -2.59821202010108      3.23549400091967      0.46267721434689
  H   -1.76496910161276      5.49207050009415      1.13019800441202
  H   -2.85277085697773      6.27932796168410     -0.05688466920844
  H   -3.53873269273467      5.40553491736021      1.35034593131808
  H   -4.19595480280297      2.95281483659970     -1.46675369392262
  H   -4.95958904015337      3.83974602214379     -0.11263510288435
  H   -4.39669313725248      4.73327065497109     -1.55997579791567
