115
Coordinates from ORCA-job 6
  O   4.65366666040299      2.20132866702135     -4.91265797033320
  C   4.34985529070871      2.31985408059796     -3.73045165356935
  C   4.63103455325119      3.60595287194470     -2.92653801035385
  C   6.06247066357777      3.61114066338256     -2.32477323857521
  C   5.88270866932609      4.23611364365387     -0.92939873587220
  C   4.51457243837959      3.69888587394542     -0.49367235267790
  N   3.75848784437345      3.72142864844205     -1.75028954359734
  C   2.39706054500794      3.82126141721261     -1.93556760848494
  O   1.91690128258839      3.96031736281165     -3.06176849458988
  N   3.81835520489256      1.30581113015515     -2.96508069292356
  C   3.26083821144697      0.10527091816448     -3.54860864235105
  C   1.73207811639012      0.20458057044537     -3.51187229290932
  N   1.06819839209529     -0.28026182848123     -4.58853058638071
  C   -0.36398169709100     -0.57408906619668     -4.57623460876466
  C   -0.46770718847129     -2.11435200793993     -4.45905278451697
  N   -1.16150581685190     -2.65540481117484     -3.41127245020903
  C   -1.76514286010478     -1.97969436395386     -2.27063681759142
  C   -0.72916702627502     -1.45528331853922     -1.25474590113889
  C   -1.39741171799253     -0.77427160795132     -0.04224325561692
  C   -0.42188635235167      0.10003667471183      0.80738851687324
  N   0.88376294691743     -0.27163567877122      0.73282545647048
  C   1.92350492714885      0.44368352417450      1.46342703292844
  C   1.99631336000943      1.94501072815986      1.09328768442266
  N   1.74294521874403      2.23336618553349     -0.21753331463728
  C   1.52806168561639      3.60482868789232     -0.68045730706541
  C   0.05111945214002      3.85917875480419     -0.97818475505556
  O   2.32250021192253      2.78596157016841      1.93378943061495
  C   3.26511813747652     -0.26871083695293      1.21815767749878
  C   4.50931504497151      0.37545584599613      1.85218707702650
  C   5.75916316801371     -0.42168359183376      1.45182176728311
  C   4.38118173746872      0.52392544376466      3.37458881831256
  O   -0.83469643310161      1.04151968775126      1.48517229002591
  C   -2.07428834732120     -1.76333109820047      0.90984429992949
  C   -3.14918643714884     -1.20169066685487      1.80319946101958
  C   -3.60235779862830     -2.12739710071947      2.92985442957728
  C   -4.72438686236933     -1.52626619307481      3.78316644391665
  C   -5.17455775358158     -2.43855263187651      4.92983018762259
  C   -6.30240124257654     -1.84767338048714      5.78348830763874
  C   -6.75032915446152     -2.75854965709132      6.93244469495143
  C   -7.88008881713537     -2.17020066652780      7.78542865992635
  C   -8.32825013478394     -3.08095343190715      8.93576375688257
  C   -9.45793387007307     -2.48565311257925      9.78163282425353
  O   -1.71974649368841     -2.94616615520942      0.95519438740776
  O   0.18316765198509     -2.47830881214914     -0.85136196194156
  O   0.09661646434024     -2.81332500679755     -5.30350025698013
  C   -1.05771663048124     -0.08124868902394     -5.85488892558266
  C   -2.57352241837334     -0.28953563518511     -5.81514694767876
  O   1.14600187291822      0.66305724079855     -2.51321223423561
  C   3.73680708007746     -1.15689281433078     -2.76974062539469
  C   2.97976251643124     -2.43302873364555     -3.15988203141006
  C   5.25475732457493     -1.31115552847740     -2.91343925534277
  H   4.45649484594063      4.44709198744791     -3.62739739380442
  H   6.77870452254580      4.15271232559460     -2.97031932799563
  H   6.42846024605544      2.56787275718288     -2.22560052853879
  H   6.69273138914403      3.96775142092146     -0.22314003618078
  H   5.84389584186173      5.34326477398498     -1.00151369703048
  H   4.60459299600155      2.65985374240030     -0.09931628331408
  H   4.01628917181920      4.29129120287965      0.29618973179370
  H   3.43415315075646      1.57151464243460     -2.05165169154830
  H   3.62077058402878      0.06616276304617     -4.59909210522125
  H   1.60519719656784     -0.76032159374810     -5.31711386732883
  H   -0.77629433759434     -0.04424886622172     -3.69804553636522
  H   -1.05812372595437     -3.67258885298771     -3.35439713450257
  H   -2.44891703796099     -2.70522907484291     -1.78426909446906
  H   -2.39759344043713     -1.13536371492482     -2.61712698574637
  H   -0.11691373943093     -0.68652492003077     -1.76588494562971
  H   -2.15678388621755     -0.04213657491382     -0.38503462538380
  H   1.09833653318931     -1.13371962376449      0.20336671982334
  H   1.67585826530913      0.44853338755335      2.54525791084385
  H   1.43817310447907      1.48907208699879     -0.86718527813574
  H   1.87537595677628      4.25340901485773      0.15117532024341
  H   -0.55369376350445      3.63305995778213     -0.07923936929342
  H   -0.11340959983516      4.91181207062958     -1.28024916640663
  H   -0.27787619826414      3.21523494255336     -1.81663852723401
  H   3.41664737964428     -0.34037471592618      0.11823100549252
  H   3.16972506844582     -1.31567506096693      1.58630816565592
  H   4.60898744960770      1.40004589146003      1.42932323647450
  H   5.85921622132163     -0.49579132714616      0.34850130680917
  H   6.68123445297777      0.05232644901885      1.84548368111434
  H   5.71807101966966     -1.45699710849237      1.85351972807488
  H   3.57116400563824      1.23303622835853      3.63413139467065
  H   4.17000346260737     -0.45534939903629      3.85650358964956
  H   5.32194887446838      0.91600620871449      3.81237275763973
  H   -4.00153732061062     -0.92600012977011      1.13715486303000
  H   -2.77330676378667     -0.21843942738850      2.17248892486761
  H   -2.72754173948813     -2.36848213279451      3.57205758464923
  H   -3.92624366676836     -3.09870158585619      2.49839616205921
  H   -5.59879048577312     -1.29156063417021      3.13366904488064
  H   -4.39069746268660     -0.54809766388634      4.19771492937129
  H   -4.30044035152754     -2.66792921737589      5.58080066533266
  H   -5.50090137215230     -3.41880734187228      4.51346267903476
  H   -7.17673727301740     -1.61959818416849      5.13185339310741
  H   -5.97550843277249     -0.86639689668112      6.19696973003592
  H   -5.87591051747263     -2.98478813475965      7.58451355472427
  H   -7.07447527091939     -3.74071804776759      6.51840598750131
  H   -8.75464362954065     -1.94401863224700      7.13304746147284
  H   -7.55597920883731     -1.18762403144211      8.19887088231546
  H   -7.45205600223513     -3.30517457347427      9.58497260439207
  H   -8.64894463827236     -4.06241061541795      8.51929451023648
  H   -9.75944394109294     -3.16615291972060     10.60388836821112
  H   -9.15286616720072     -1.52145713086746     10.24052092254794
  H   -10.36009603378544     -2.28513684794964      9.16577953836596
  H   -0.33477159818612     -3.01453537718701     -0.19212878494513
  H   -0.61795499381070     -0.62827118067865     -6.71611801611146
  H   -0.80973081424270      0.99269041624993     -5.98401141469249
  H   -3.05015841717950      0.06971647012475     -6.74836976935608
  H   -2.83568618714562     -1.36179617338381     -5.70073110466182
  H   -3.03669602824816      0.26463870338580     -4.97158970989583
  H   3.50649811804529     -0.94641441510068     -1.70024486797890
  H   1.91966207130890     -2.40800424506305     -2.83993308865560
  H   3.00984419417001     -2.61977435940571     -4.25378449098822
  H   3.43864021807875     -3.31177319973290     -2.66382288511664
  H   5.77783534910648     -0.37287274995571     -2.64267684915361
  H   5.63261896157611     -2.12144360815124     -2.25776112676633
  H   5.52979177447512     -1.56254091990860     -3.95926860077238
